   142
 frame    137
 H          22.172       4.851      -0.067
 H          20.938       7.032      -0.099
 H          18.753       8.311      -0.074
 H          14.063       9.635      -0.055
 H          16.571       9.603      -0.037
 H           9.637       7.173      -0.196
 H           8.348       5.026      -0.217
 H          11.850       8.399      -0.126
 H           8.142     -10.125       0.251
 H           8.313       2.496      -0.186
 H           8.113     -12.652       0.384
 H           9.346     -14.828       0.525
 H          11.529     -16.106       0.629
 H          16.217     -17.428       0.736
 H          13.711     -17.396       0.717
 H          20.647     -14.970       0.637
 H          22.082      -2.727       0.249
 H          22.049      -5.248       0.355
 H          22.011      -7.770       0.426
 H          21.972     -10.296       0.489
 H          22.143       2.322       0.013
 H          21.936     -12.823       0.564
 H          18.431     -16.193       0.686
 H          22.114      -0.204       0.122
 H           8.238      -2.554      -0.062
 H           8.203      -5.077       0.031
 H           8.170      -7.600       0.134
 H           8.273      -0.032      -0.137
 C          18.881       3.601       0.121
 C          20.367       3.579       0.205
 C          21.066       4.879       0.027
 C          16.702       4.885       0.136
 C          18.165       4.869       0.143
 C          18.900       6.127      -0.078
 C          20.377       6.067      -0.187
 C          12.350       4.935       0.068
 C          13.813       4.922       0.106
 C          14.559       6.147       0.033
 C          15.993       6.132       0.044
 C          16.734       7.371      -0.112
 C          18.173       7.349      -0.180
 C          11.648       6.218      -0.151
 C          12.408       7.425      -0.220
 C          13.852       7.408      -0.136
 C          14.610       8.661      -0.136
 C          16.005       8.639      -0.125
 C           9.451       5.020      -0.090
 C          10.174       6.196      -0.262
 C          13.629      -7.684      -0.088
 C          12.168      -7.655      -0.018
 C          11.429      -8.906       0.117
 C           9.954      -8.877       0.178
 C          11.540      -1.366      -0.452
 C           9.254     -10.124       0.410
 C          15.825      -8.972       0.135
 C          14.337      -8.951       0.099
 C          15.917      -1.411      -0.535
 C          13.603     -10.213       0.193
 C          14.470      -1.395      -0.555
 C          12.151     -10.182       0.240
 C          13.721      -2.665      -0.463
 C          11.602       3.685       0.032
 C          11.408     -11.397       0.548
 C          12.239      -2.638      -0.457
 C          10.114       3.700       0.061
 C           9.917     -11.360       0.583
 C          11.460      -3.883      -0.599
 C           9.419       2.467      -0.029
 C           9.218     -12.664       0.513
 C          20.311      -1.473      -0.207
 C          17.973     -10.251       0.343
 C          18.834      -1.462      -0.289
 C          16.522     -10.247       0.243
 C          18.109      -2.712      -0.340
 C          15.967       3.658      -0.034
 C          15.772     -11.474       0.482
 C          16.623      -2.705      -0.420
 C          14.522       3.679      -0.061
 C          14.312     -11.454       0.463
 C          13.777       2.441      -0.239
 C          13.578     -12.680       0.698
 C          15.895      -3.935      -0.389
 C          14.416      -3.918      -0.405
 C          12.316       2.434      -0.195
 C          12.118     -12.660       0.668
 C          13.686      -5.160      -0.381
 C          11.573       1.176      -0.231
 C          11.386     -13.931       0.514
 C          12.207      -5.138      -0.364
 C          10.091       1.189      -0.176
 C           9.916     -13.864       0.394
 C          21.021      -2.724      -0.156
 C          18.671     -11.496       0.660
 C          20.284      -3.983      -0.200
 C          18.144       2.362      -0.120
 C          17.928     -12.738       0.741
 C          18.857      -3.977      -0.425
 C          16.684       2.405      -0.194
 C          16.469     -12.717       0.735
 C          18.070      -5.215      -0.240
 C          15.964       1.143      -0.243
 C          15.729     -13.955       0.707
 C          16.591      -5.194      -0.320
 C          14.470       1.156      -0.250
 C          14.291     -13.936       0.688
 C          15.850      -6.464      -0.347
 C          13.724      -0.113      -0.374
 C          13.549     -15.182       0.566
 C          14.404      -6.442      -0.363
 C          12.267      -0.106      -0.287
 C          12.108     -15.159       0.485
 C          20.986      -5.260      -0.048
 C          18.850       1.087      -0.116
 C          18.631     -14.019       0.597
 C          20.240      -6.487      -0.013
 C          18.135      -0.176      -0.187
 C          17.883     -15.230       0.541
 C          18.760      -6.473      -0.107
 C          16.684      -0.150      -0.320
 C          16.442     -15.220       0.593
 C          18.034      -7.724       0.089
 C          15.675     -16.467       0.615
 C          16.571      -7.718      -0.033
 C          14.281     -16.448       0.604
 C          20.919      -7.786       0.175
 C          20.193      -9.001       0.384
 C          18.720      -8.998       0.249
 C          20.860     -10.278       0.604
 C          20.158     -11.498       0.732
 C          11.473      -6.381      -0.258
 C          21.033       2.328       0.151
 C          20.830     -12.813       0.668
 C          20.330       1.062      -0.002
 C          20.101     -13.990       0.516
 C          21.026      -0.177      -0.109
 C           9.991      -6.367      -0.234
 C          10.013      -3.860      -0.426
 C          10.053      -1.342      -0.411
 C           9.311      -2.570      -0.399
 C           9.273      -5.113      -0.314
 C           9.269      -7.645      -0.077
 C           9.371      -0.035      -0.335
