   142
 frame    531
 H          22.172       4.851      -0.067
 H          20.938       7.032      -0.099
 H          18.753       8.311      -0.074
 H          14.063       9.635      -0.055
 H          16.571       9.603      -0.037
 H           9.637       7.173      -0.196
 H           8.348       5.026      -0.217
 H          11.850       8.399      -0.126
 H           8.142     -10.125       0.251
 H           8.313       2.496      -0.186
 H           8.113     -12.652       0.384
 H           9.346     -14.828       0.525
 H          11.529     -16.106       0.629
 H          16.217     -17.428       0.736
 H          13.711     -17.396       0.717
 H          20.647     -14.970       0.637
 H          22.082      -2.727       0.249
 H          22.049      -5.248       0.355
 H          22.011      -7.770       0.426
 H          21.972     -10.296       0.489
 H          22.143       2.322       0.013
 H          21.936     -12.823       0.564
 H          18.431     -16.193       0.686
 H          22.114      -0.204       0.122
 H           8.238      -2.554      -0.062
 H           8.203      -5.077       0.031
 H           8.170      -7.600       0.134
 H           8.273      -0.032      -0.137
 C          18.895       3.577       0.043
 C          20.356       3.554       0.050
 C          21.046       4.881      -0.018
 C          16.711       4.843      -0.292
 C          18.165       4.836      -0.115
 C          18.892       6.133      -0.122
 C          20.361       6.091      -0.033
 C          12.353       4.897      -0.184
 C          13.806       4.882      -0.334
 C          14.547       6.131      -0.305
 C          16.005       6.111      -0.298
 C          16.739       7.356      -0.224
 C          18.178       7.364      -0.163
 C          11.657       6.225      -0.203
 C          12.405       7.433      -0.195
 C          13.845       7.394      -0.246
 C          14.612       8.642      -0.138
 C          16.004       8.627      -0.137
 C           9.471       5.018      -0.164
 C          10.193       6.212      -0.153
 C          13.642      -7.663      -0.057
 C          12.176      -7.649      -0.165
 C          11.460      -8.865       0.141
 C           9.996      -8.841       0.222
 C          11.536      -1.344      -0.205
 C           9.255     -10.099       0.255
 C          15.804      -8.946      -0.046
 C          14.363      -8.922      -0.053
 C          15.918      -1.387      -0.021
 C          13.626     -10.167       0.129
 C          14.447      -1.376      -0.031
 C          12.150     -10.120       0.315
 C          13.719      -2.634       0.004
 C          11.590       3.659      -0.042
 C          11.399     -11.368       0.444
 C          12.250      -2.625      -0.101
 C          10.124       3.683      -0.091
 C           9.929     -11.346       0.423
 C          11.525      -3.861      -0.063
 C           9.422       2.444      -0.153
 C           9.237     -12.669       0.420
 C          20.284      -1.456       0.104
 C          17.976     -10.202       0.406
 C          18.824      -1.439      -0.070
 C          16.495     -10.202       0.170
 C          18.076      -2.697       0.011
 C          15.976       3.618      -0.367
 C          15.768     -11.452       0.130
 C          16.604      -2.672       0.033
 C          14.519       3.637      -0.379
 C          14.317     -11.436       0.112
 C          13.797       2.397      -0.278
 C          13.576     -12.663       0.241
 C          15.878      -3.919      -0.099
 C          14.420      -3.901      -0.118
 C          12.312       2.393      -0.102
 C          12.126     -12.634       0.389
 C          13.676      -5.137       0.077
 C          11.590       1.145      -0.205
 C          11.397     -13.942       0.457
 C          12.214      -5.119      -0.028
 C          10.124       1.167      -0.113
 C           9.923     -13.881       0.505
 C          20.996      -2.717       0.081
 C          18.688     -11.460       0.549
 C          20.295      -3.972      -0.035
 C          18.150       2.330      -0.023
 C          17.920     -12.708       0.459
 C          18.772      -3.947       0.083
 C          16.670       2.356      -0.248
 C          16.472     -12.697       0.282
 C          18.050      -5.181       0.080
 C          15.933       1.104      -0.351
 C          15.740     -13.945       0.348
 C          16.577      -5.170       0.120
 C          14.505       1.120      -0.371
 C          14.282     -13.927       0.324
 C          15.847      -6.433       0.147
 C          13.746      -0.110      -0.283
 C          13.549     -15.170       0.438
 C          14.377      -6.409       0.123
 C          12.280      -0.109      -0.401
 C          12.109     -15.172       0.495
 C          20.957      -5.246       0.195
 C          18.839       1.058      -0.078
 C          18.619     -14.034       0.527
 C          20.208      -6.483       0.282
 C          18.122      -0.178      -0.287
 C          17.868     -15.247       0.542
 C          18.746      -6.476       0.083
 C          16.652      -0.146      -0.250
 C          16.439     -15.204       0.458
 C          18.022      -7.726      -0.056
 C          15.672     -16.442       0.586
 C          16.551      -7.702      -0.019
 C          14.281     -16.428       0.572
 C          20.888      -7.741       0.424
 C          20.160      -8.970       0.421
 C          18.698      -8.965       0.273
 C          20.857     -10.243       0.450
 C          20.148     -11.476       0.570
 C          11.479      -6.388      -0.053
 C          21.035       2.308       0.008
 C          20.818     -12.821       0.578
 C          20.299       1.043       0.055
 C          20.095     -14.016       0.613
 C          20.993      -0.208       0.133
 C          10.018      -6.354       0.075
 C          10.011      -3.852      -0.274
 C          10.067      -1.335      -0.097
 C           9.337      -2.575      -0.159
 C           9.304      -5.101      -0.069
 C           9.293      -7.589       0.195
 C           9.389      -0.071      -0.081
