   142
 frame    450
 H          22.172       4.851      -0.067
 H          20.938       7.032      -0.099
 H          18.753       8.311      -0.074
 H          14.063       9.635      -0.055
 H          16.571       9.603      -0.037
 H           9.637       7.173      -0.196
 H           8.348       5.026      -0.217
 H          11.850       8.399      -0.126
 H           8.142     -10.125       0.251
 H           8.313       2.496      -0.186
 H           8.113     -12.652       0.384
 H           9.346     -14.828       0.525
 H          11.529     -16.106       0.629
 H          16.217     -17.428       0.736
 H          13.711     -17.396       0.717
 H          20.647     -14.970       0.637
 H          22.082      -2.727       0.249
 H          22.049      -5.248       0.355
 H          22.011      -7.770       0.426
 H          21.972     -10.296       0.489
 H          22.143       2.322       0.013
 H          21.936     -12.823       0.564
 H          18.431     -16.193       0.686
 H          22.114      -0.204       0.122
 H           8.238      -2.554      -0.062
 H           8.203      -5.077       0.031
 H           8.170      -7.600       0.134
 H           8.273      -0.032      -0.137
 C          18.920       3.593      -0.494
 C          20.381       3.581      -0.452
 C          21.061       4.866      -0.269
 C          16.735       4.899      -0.616
 C          18.182       4.850      -0.443
 C          18.908       6.111      -0.226
 C          20.375       6.071      -0.168
 C          12.345       4.920      -0.509
 C          13.799       4.944      -0.666
 C          14.548       6.162      -0.362
 C          16.020       6.147      -0.348
 C          16.767       7.390      -0.083
 C          18.220       7.339      -0.075
 C          11.648       6.204      -0.289
 C          12.358       7.410      -0.116
 C          13.815       7.428      -0.115
 C          14.601       8.670      -0.023
 C          16.009       8.649      -0.016
 C           9.468       5.015      -0.408
 C          10.182       6.197      -0.271
 C          13.631      -7.657      -0.115
 C          12.165      -7.642      -0.274
 C          11.406      -8.938      -0.307
 C           9.928      -8.897      -0.131
 C          11.568      -1.340      -0.136
 C           9.223     -10.176      -0.083
 C          15.810      -8.934      -0.115
 C          14.354      -8.909      -0.135
 C          15.901      -1.383      -0.185
 C          13.644     -10.192      -0.180
 C          14.452      -1.374      -0.208
 C          12.160     -10.191      -0.195
 C          13.729      -2.631      -0.160
 C          11.577       3.687      -0.587
 C          11.381     -11.425      -0.093
 C          12.290      -2.601      -0.050
 C          10.125       3.708      -0.566
 C           9.922     -11.419      -0.084
 C          11.562      -3.849       0.196
 C           9.391       2.489      -0.513
 C           9.222     -12.685       0.192
 C          20.258      -1.429       0.215
 C          17.970     -10.264      -0.108
 C          18.784      -1.437       0.002
 C          16.494     -10.222      -0.135
 C          18.023      -2.671       0.081
 C          15.975       3.637      -0.706
 C          15.780     -11.516      -0.267
 C          16.583      -2.660      -0.108
 C          14.520       3.658      -0.731
 C          14.325     -11.493      -0.278
 C          13.797       2.384      -0.554
 C          13.566     -12.739      -0.119
 C          15.888      -3.913      -0.288
 C          14.402      -3.898      -0.328
 C          12.312       2.429      -0.609
 C          12.110     -12.665       0.046
 C          13.703      -5.142      -0.082
 C          11.537       1.185      -0.642
 C          11.384     -13.906       0.336
 C          12.263      -5.125       0.010
 C          10.066       1.194      -0.471
 C           9.919     -13.867       0.404
 C          20.944      -2.696       0.307
 C          18.712     -11.515       0.013
 C          20.206      -3.963       0.431
 C          18.149       2.349      -0.515
 C          17.948     -12.737       0.113
 C          18.705      -3.936       0.359
 C          16.669       2.345      -0.519
 C          16.499     -12.772      -0.085
 C          17.989      -5.199       0.155
 C          15.943       1.088      -0.410
 C          15.747     -13.976       0.265
 C          16.553      -5.183      -0.018
 C          14.481       1.106      -0.429
 C          14.280     -13.962       0.239
 C          15.835      -6.442      -0.009
 C          13.731      -0.127      -0.348
 C          13.520     -15.192       0.571
 C          14.382      -6.417      -0.042
 C          12.260      -0.119      -0.514
 C          12.070     -15.124       0.581
 C          20.913      -5.251       0.412
 C          18.891       1.089      -0.502
 C          18.641     -13.995       0.413
 C          20.191      -6.492       0.391
 C          18.144      -0.192      -0.387
 C          17.918     -15.202       0.633
 C          18.709      -6.456       0.168
 C          16.663      -0.163      -0.298
 C          16.464     -15.231       0.590
 C          18.041      -7.708      -0.162
 C          15.680     -16.465       0.699
 C          16.566      -7.695      -0.059
 C          14.276     -16.450       0.689
 C          20.882      -7.777       0.414
 C          20.229      -9.027       0.062
 C          18.762      -9.025      -0.178
 C          20.898     -10.318       0.123
 C          20.175     -11.540       0.073
 C          11.507      -6.373       0.018
 C          21.073       2.337      -0.346
 C          20.833     -12.827       0.337
 C          20.364       1.073      -0.288
 C          20.105     -13.997       0.518
 C          20.986      -0.162       0.136
 C          10.025      -6.365       0.186
 C          10.062      -3.836       0.213
 C          10.092      -1.307       0.013
 C           9.365      -2.552       0.080
 C           9.328      -5.110       0.157
 C           9.298      -7.637       0.190
 C           9.399      -0.021      -0.074
