   142
 frame    115
 H          22.172       4.851      -0.067
 H          20.938       7.032      -0.099
 H          18.753       8.311      -0.074
 H          14.063       9.635      -0.055
 H          16.571       9.603      -0.037
 H           9.637       7.173      -0.196
 H           8.348       5.026      -0.217
 H          11.850       8.399      -0.126
 H           8.142     -10.125       0.251
 H           8.313       2.496      -0.186
 H           8.113     -12.652       0.384
 H           9.346     -14.828       0.525
 H          11.529     -16.106       0.629
 H          16.217     -17.428       0.736
 H          13.711     -17.396       0.717
 H          20.647     -14.970       0.637
 H          22.082      -2.727       0.249
 H          22.049      -5.248       0.355
 H          22.011      -7.770       0.426
 H          21.972     -10.296       0.489
 H          22.143       2.322       0.013
 H          21.936     -12.823       0.564
 H          18.431     -16.193       0.686
 H          22.114      -0.204       0.122
 H           8.238      -2.554      -0.062
 H           8.203      -5.077       0.031
 H           8.170      -7.600       0.134
 H           8.273      -0.032      -0.137
 C          18.890       3.599       0.145
 C          20.366       3.580       0.049
 C          21.069       4.871      -0.167
 C          16.721       4.869       0.053
 C          18.199       4.866       0.005
 C          18.935       6.141      -0.164
 C          20.393       6.081      -0.194
 C          12.322       4.931      -0.061
 C          13.795       4.901       0.017
 C          14.536       6.167      -0.101
 C          16.005       6.153      -0.085
 C          16.767       7.418      -0.122
 C          18.210       7.363      -0.142
 C          11.615       6.227      -0.231
 C          12.363       7.435      -0.192
 C          13.807       7.450      -0.145
 C          14.601       8.681      -0.084
 C          16.000       8.666      -0.076
 C           9.453       5.016      -0.288
 C          10.157       6.210      -0.299
 C          13.639      -7.683      -0.114
 C          12.182      -7.666      -0.068
 C          11.435      -8.881       0.251
 C           9.962      -8.854       0.362
 C          11.541      -1.333      -0.332
 C           9.256     -10.128       0.447
 C          15.821      -8.965       0.052
 C          14.340      -8.939       0.030
 C          15.897      -1.390      -0.364
 C          13.598     -10.145       0.393
 C          14.473      -1.375      -0.391
 C          12.152     -10.134       0.447
 C          13.709      -2.640      -0.503
 C          11.597       3.684       0.044
 C          11.402     -11.383       0.577
 C          12.249      -2.610      -0.394
 C          10.123       3.706      -0.067
 C           9.922     -11.381       0.456
 C          11.512      -3.866      -0.236
 C           9.420       2.473       0.004
 C           9.212     -12.685       0.306
 C          20.318      -1.459      -0.084
 C          17.964     -10.206       0.544
 C          18.832      -1.421      -0.208
 C          16.520     -10.185       0.442
 C          18.093      -2.680      -0.277
 C          15.980       3.588       0.132
 C          15.777     -11.417       0.665
 C          16.631      -2.677      -0.434
 C          14.507       3.606       0.119
 C          14.308     -11.395       0.640
 C          13.759       2.365      -0.050
 C          13.566     -12.666       0.621
 C          15.918      -3.929      -0.551
 C          14.397      -3.909      -0.590
 C          12.309       2.406       0.008
 C          12.098     -12.652       0.541
 C          13.677      -5.165      -0.397
 C          11.569       1.164      -0.105
 C          11.356     -13.939       0.422
 C          12.220      -5.158      -0.295
 C          10.091       1.178       0.005
 C           9.892     -13.891       0.359
 C          21.017      -2.722      -0.047
 C          18.676     -11.478       0.685
 C          20.282      -3.977      -0.138
 C          18.145       2.334       0.099
 C          17.951     -12.730       0.620
 C          18.796      -3.956      -0.090
 C          16.700       2.331      -0.006
 C          16.482     -12.705       0.660
 C          18.055      -5.229      -0.181
 C          15.960       1.113      -0.298
 C          15.737     -13.965       0.569
 C          16.598      -5.202      -0.350
 C          14.475       1.130      -0.340
 C          14.275     -13.947       0.553
 C          15.831      -6.451      -0.167
 C          13.741      -0.108      -0.384
 C          13.517     -15.206       0.555
 C          14.399      -6.433      -0.205
 C          12.282      -0.088      -0.343
 C          12.074     -15.163       0.512
 C          20.984      -5.259       0.054
 C          18.857       1.080       0.009
 C          18.659     -14.034       0.508
 C          20.260      -6.499       0.104
 C          18.126      -0.152      -0.244
 C          17.905     -15.241       0.571
 C          18.759      -6.493      -0.011
 C          16.664      -0.146      -0.343
 C          16.461     -15.245       0.584
 C          18.024      -7.738       0.055
 C          15.672     -16.474       0.670
 C          16.556      -7.715      -0.056
 C          14.274     -16.453       0.657
 C          20.912      -7.759       0.461
 C          20.187      -8.985       0.542
 C          18.715      -8.978       0.393
 C          20.860     -10.275       0.641
 C          20.160     -11.508       0.616
 C          11.467      -6.404      -0.158
 C          21.037       2.336       0.171
 C          20.840     -12.827       0.465
 C          20.332       1.055       0.180
 C          20.128     -14.017       0.478
 C          21.018      -0.194       0.169
 C           9.972      -6.376      -0.125
 C          10.032      -3.858      -0.378
 C          10.044      -1.332      -0.306
 C           9.316      -2.576      -0.318
 C           9.283      -5.109      -0.221
 C           9.273      -7.608       0.221
 C           9.374      -0.057      -0.060
