   142
 frame    827
 H          22.172       4.851      -0.067
 H          20.938       7.032      -0.099
 H          18.753       8.311      -0.074
 H          14.063       9.635      -0.055
 H          16.571       9.603      -0.037
 H           9.637       7.173      -0.196
 H           8.348       5.026      -0.217
 H          11.850       8.399      -0.126
 H           8.142     -10.125       0.251
 H           8.313       2.496      -0.186
 H           8.113     -12.652       0.384
 H           9.346     -14.828       0.525
 H          11.529     -16.106       0.629
 H          16.217     -17.428       0.736
 H          13.711     -17.396       0.717
 H          20.647     -14.970       0.637
 H          22.082      -2.727       0.249
 H          22.049      -5.248       0.355
 H          22.011      -7.770       0.426
 H          21.972     -10.296       0.489
 H          22.143       2.322       0.013
 H          21.936     -12.823       0.564
 H          18.431     -16.193       0.686
 H          22.114      -0.204       0.122
 H           8.238      -2.554      -0.062
 H           8.203      -5.077       0.031
 H           8.170      -7.600       0.134
 H           8.273      -0.032      -0.137
 C          18.828       3.555       0.035
 C          20.327       3.534      -0.057
 C          21.073       4.817       0.045
 C          16.660       4.901       0.047
 C          18.132       4.851       0.047
 C          18.919       6.112       0.052
 C          20.422       6.050       0.065
 C          12.375       4.929      -0.019
 C          13.854       4.938       0.001
 C          14.551       6.183       0.033
 C          16.000       6.173       0.043
 C          16.767       7.402       0.024
 C          18.193       7.361       0.031
 C          11.628       6.204      -0.019
 C          12.386       7.443      -0.021
 C          13.810       7.449       0.005
 C          14.612       8.693      -0.151
 C          16.006       8.672      -0.144
 C           9.446       4.961      -0.089
 C          10.131       6.177      -0.048
 C          13.631      -7.637       1.040
 C          12.163      -7.629       0.768
 C          11.394      -8.879       0.675
 C           9.972      -8.851       0.403
 C          11.514      -1.309       0.346
 C           9.274     -10.111       0.209
 C          15.783      -8.935       1.286
 C          14.329      -8.917       1.271
 C          15.911      -1.393       0.783
 C          13.602     -10.162       0.982
 C          14.419      -1.375       0.764
 C          12.126     -10.126       0.782
 C          13.647      -2.601       0.545
 C          11.648       3.646      -0.047
 C          11.454     -11.360       0.438
 C          12.186      -2.585       0.419
 C          10.156       3.658      -0.207
 C           9.960     -11.338       0.292
 C          11.440      -3.852       0.392
 C           9.445       2.435      -0.213
 C           9.214     -12.609       0.502
 C          20.336      -1.423       0.408
 C          17.966     -10.200       0.887
 C          18.831      -1.400       0.519
 C          16.491     -10.197       1.031
 C          18.124      -2.658       0.549
 C          15.948       3.643       0.228
 C          15.754     -11.448       0.774
 C          16.658      -2.645       0.603
 C          14.526       3.652       0.208
 C          14.315     -11.438       0.749
 C          13.774       2.421       0.515
 C          13.605     -12.694       0.610
 C          15.899      -3.915       0.579
 C          14.377      -3.898       0.548
 C          12.306       2.414       0.344
 C          12.132     -12.646       0.574
 C          13.617      -5.154       0.624
 C          11.547       1.180       0.310
 C          11.366     -13.898       0.655
 C          12.145      -5.128       0.517
 C          10.113       1.186       0.043
 C           9.864     -13.837       0.627
 C          20.996      -2.692       0.463
 C          18.627     -11.444       0.551
 C          20.309      -3.955       0.572
 C          18.134       2.346       0.431
 C          17.908     -12.717       0.655
 C          18.836      -3.938       0.553
 C          16.650       2.384       0.567
 C          16.431     -12.722       0.637
 C          18.088      -5.196       0.656
 C          15.916       1.176       0.918
 C          15.731     -13.973       0.722
 C          16.616      -5.185       0.708
 C          14.466       1.183       0.900
 C          14.281     -13.955       0.699
 C          15.839      -6.378       0.976
 C          13.730      -0.083       0.757
 C          13.515     -15.198       0.712
 C          14.358      -6.367       0.939
 C          12.272      -0.073       0.488
 C          12.082     -15.152       0.708
 C          20.965      -5.235       0.572
 C          18.872       1.093       0.454
 C          18.656     -13.990       0.740
 C          20.263      -6.483       0.611
 C          18.109      -0.148       0.616
 C          17.903     -15.226       0.759
 C          18.769      -6.472       0.719
 C          16.630      -0.116       0.812
 C          16.470     -15.234       0.730
 C          18.004      -7.695       0.894
 C          15.676     -16.480       0.593
 C          16.532      -7.671       1.105
 C          14.279     -16.467       0.588
 C          20.920      -7.757       0.553
 C          20.172      -8.980       0.608
 C          18.728      -8.969       0.832
 C          20.844     -10.253       0.415
 C          20.121     -11.465       0.454
 C          11.432      -6.385       0.556
 C          21.017       2.295      -0.029
 C          20.841     -12.752       0.687
 C          20.305       1.061       0.220
 C          20.159     -13.967       0.754
 C          21.017      -0.181       0.253
 C           9.939      -6.362       0.378
 C           9.969      -3.826       0.336
 C          10.014      -1.299       0.192
 C           9.315      -2.545       0.191
 C           9.274      -5.091       0.313
 C           9.257      -7.612       0.312
 C           9.367      -0.035       0.038
