   142
 frame    925
 H          22.172       4.851      -0.067
 H          20.938       7.032      -0.099
 H          18.753       8.311      -0.074
 H          14.063       9.635      -0.055
 H          16.571       9.603      -0.037
 H           9.637       7.173      -0.196
 H           8.348       5.026      -0.217
 H          11.850       8.399      -0.126
 H           8.142     -10.125       0.251
 H           8.313       2.496      -0.186
 H           8.113     -12.652       0.384
 H           9.346     -14.828       0.525
 H          11.529     -16.106       0.629
 H          16.217     -17.428       0.736
 H          13.711     -17.396       0.717
 H          20.647     -14.970       0.637
 H          22.082      -2.727       0.249
 H          22.049      -5.248       0.355
 H          22.011      -7.770       0.426
 H          21.972     -10.296       0.489
 H          22.143       2.322       0.013
 H          21.936     -12.823       0.564
 H          18.431     -16.193       0.686
 H          22.114      -0.204       0.122
 H           8.238      -2.554      -0.062
 H           8.203      -5.077       0.031
 H           8.170      -7.600       0.134
 H           8.273      -0.032      -0.137
 C          18.892       3.618       0.173
 C          20.372       3.602       0.121
 C          21.066       4.898      -0.009
 C          16.698       4.860      -0.000
 C          18.148       4.872       0.155
 C          18.868       6.143       0.083
 C          20.357       6.087      -0.027
 C          12.361       4.944       0.079
 C          13.828       4.885      -0.023
 C          14.547       6.151      -0.224
 C          15.998       6.144      -0.203
 C          16.729       7.409      -0.074
 C          18.151       7.377      -0.014
 C          11.680       6.230       0.000
 C          12.432       7.442      -0.074
 C          13.850       7.440      -0.097
 C          14.612       8.682      -0.071
 C          16.001       8.654      -0.053
 C           9.455       5.044      -0.139
 C          10.191       6.213      -0.139
 C          13.650      -7.623       0.805
 C          12.201      -7.628       0.780
 C          11.406      -8.846       0.622
 C           9.940      -8.850       0.522
 C          11.559      -1.287       0.613
 C           9.220     -10.154       0.447
 C          15.802      -8.927       0.734
 C          14.331      -8.902       0.706
 C          15.892      -1.419       0.782
 C          13.560     -10.112       0.586
 C          14.432      -1.398       0.754
 C          12.094     -10.132       0.525
 C          13.708      -2.614       1.070
 C          11.590       3.704       0.058
 C          11.382     -11.393       0.582
 C          12.244      -2.559       0.835
 C          10.119       3.728      -0.023
 C           9.918     -11.384       0.501
 C          11.460      -3.825       0.766
 C           9.388       2.517       0.019
 C           9.223     -12.685       0.477
 C          20.254      -1.425       0.553
 C          18.006     -10.200       0.595
 C          18.767      -1.374       0.763
 C          16.546     -10.143       0.622
 C          18.054      -2.632       0.962
 C          15.979       3.568       0.041
 C          15.778     -11.372       0.540
 C          16.580      -2.663       1.116
 C          14.506       3.590       0.028
 C          14.304     -11.354       0.529
 C          13.727       2.376       0.147
 C          13.582     -12.634       0.550
 C          15.839      -3.868       1.467
 C          14.396      -3.850       1.448
 C          12.268       2.426       0.080
 C          12.129     -12.643       0.669
 C          13.668      -5.076       1.139
 C          11.548       1.174       0.279
 C          11.409     -13.918       0.687
 C          12.201      -5.103       0.931
 C          10.082       1.205       0.156
 C           9.923     -13.880       0.545
 C          20.966      -2.679       0.588
 C          18.687     -11.478       0.681
 C          20.270      -3.936       0.797
 C          18.184       2.349       0.165
 C          17.916     -12.721       0.749
 C          18.806      -3.915       0.933
 C          16.724       2.331       0.172
 C          16.469     -12.672       0.570
 C          18.022      -5.180       1.049
 C          15.944       1.137       0.384
 C          15.735     -13.952       0.425
 C          16.542      -5.110       1.184
 C          14.465       1.157       0.361
 C          14.282     -13.930       0.423
 C          15.826      -6.359       0.943
 C          13.760      -0.108       0.538
 C          13.548     -15.200       0.596
 C          14.359      -6.336       0.908
 C          12.302      -0.057       0.521
 C          12.124     -15.155       0.648
 C          20.933      -5.217       0.676
 C          18.868       1.080       0.405
 C          18.597     -14.009       0.770
 C          20.184      -6.468       0.744
 C          18.068      -0.135       0.626
 C          17.853     -15.229       0.698
 C          18.692      -6.468       0.951
 C          16.612      -0.141       0.585
 C          16.434     -15.237       0.616
 C          17.962      -7.705       0.912
 C          15.670     -16.474       0.671
 C          16.511      -7.658       0.863
 C          14.279     -16.454       0.661
 C          20.915      -7.725       0.633
 C          20.199      -8.970       0.712
 C          18.724      -8.934       0.751
 C          20.887     -10.292       0.656
 C          20.160     -11.509       0.658
 C          11.497      -6.373       0.801
 C          21.055       2.367       0.190
 C          20.825     -12.831       0.625
 C          20.329       1.074       0.334
 C          20.092     -14.008       0.657
 C          21.011      -0.193       0.355
 C          10.021      -6.343       0.525
 C          10.001      -3.816       0.565
 C          10.088      -1.298       0.348
 C           9.331      -2.537       0.331
 C           9.305      -5.077       0.422
 C           9.267      -7.585       0.400
 C           9.375      -0.043       0.110
