   142
 frame    266
 H          22.172       4.851      -0.067
 H          20.938       7.032      -0.099
 H          18.753       8.311      -0.074
 H          14.063       9.635      -0.055
 H          16.571       9.603      -0.037
 H           9.637       7.173      -0.196
 H           8.348       5.026      -0.217
 H          11.850       8.399      -0.126
 H           8.142     -10.125       0.251
 H           8.313       2.496      -0.186
 H           8.113     -12.652       0.384
 H           9.346     -14.828       0.525
 H          11.529     -16.106       0.629
 H          16.217     -17.428       0.736
 H          13.711     -17.396       0.717
 H          20.647     -14.970       0.637
 H          22.082      -2.727       0.249
 H          22.049      -5.248       0.355
 H          22.011      -7.770       0.426
 H          21.972     -10.296       0.489
 H          22.143       2.322       0.013
 H          21.936     -12.823       0.564
 H          18.431     -16.193       0.686
 H          22.114      -0.204       0.122
 H           8.238      -2.554      -0.062
 H           8.203      -5.077       0.031
 H           8.170      -7.600       0.134
 H           8.273      -0.032      -0.137
 C          18.878       3.584      -0.337
 C          20.367       3.555      -0.334
 C          21.068       4.860      -0.303
 C          16.683       4.848      -0.240
 C          18.163       4.843      -0.258
 C          18.891       6.103      -0.205
 C          20.362       6.064      -0.245
 C          12.360       4.921      -0.325
 C          13.837       4.882      -0.251
 C          14.548       6.156      -0.270
 C          15.998       6.139      -0.259
 C          16.753       7.376      -0.083
 C          18.185       7.334      -0.068
 C          11.668       6.199      -0.275
 C          12.396       7.408      -0.131
 C          13.828       7.415      -0.114
 C          14.605       8.646       0.036
 C          16.008       8.629       0.037
 C           9.462       5.012      -0.426
 C          10.199       6.197      -0.352
 C          13.661      -7.709      -0.460
 C          12.177      -7.682      -0.257
 C          11.428      -8.904      -0.070
 C           9.980      -8.882       0.130
 C          11.541      -1.335      -0.410
 C           9.258     -10.143       0.137
 C          15.820      -8.982      -0.233
 C          14.359      -8.966      -0.258
 C          15.913      -1.411      -0.769
 C          13.609     -10.179      -0.023
 C          14.469      -1.391      -0.794
 C          12.164     -10.146      -0.051
 C          13.731      -2.629      -0.673
 C          11.620       3.681      -0.434
 C          11.420     -11.395       0.052
 C          12.252      -2.613      -0.514
 C          10.131       3.686      -0.471
 C           9.932     -11.380       0.036
 C          11.498      -3.870      -0.441
 C           9.424       2.477      -0.293
 C           9.223     -12.676       0.157
 C          20.259      -1.434       0.128
 C          17.969     -10.214       0.068
 C          18.827      -1.428      -0.261
 C          16.526     -10.217       0.021
 C          18.093      -2.690      -0.391
 C          15.968       3.599      -0.255
 C          15.766     -11.432       0.225
 C          16.613      -2.669      -0.603
 C          14.529       3.615      -0.269
 C          14.333     -11.417       0.196
 C          13.763       2.394      -0.438
 C          13.607     -12.651       0.272
 C          15.871      -3.934      -0.557
 C          14.438      -3.918      -0.589
 C          12.321       2.398      -0.444
 C          12.129     -12.642       0.238
 C          13.692      -5.181      -0.595
 C          11.558       1.168      -0.388
 C          11.405     -13.908       0.383
 C          12.213      -5.147      -0.439
 C          10.110       1.205      -0.211
 C           9.930     -13.875       0.307
 C          20.965      -2.706       0.176
 C          18.679     -11.480       0.169
 C          20.251      -3.963       0.142
 C          18.141       2.329      -0.358
 C          17.926     -12.712       0.316
 C          18.807      -3.959      -0.263
 C          16.707       2.357      -0.390
 C          16.448     -12.689       0.327
 C          18.069      -5.216      -0.310
 C          15.954       1.129      -0.562
 C          15.734     -13.963       0.350
 C          16.583      -5.215      -0.512
 C          14.487       1.154      -0.590
 C          14.289     -13.946       0.326
 C          15.851      -6.455      -0.603
 C          13.761      -0.096      -0.711
 C          13.546     -15.181       0.558
 C          14.400      -6.444      -0.636
 C          12.284      -0.077      -0.504
 C          12.107     -15.133       0.576
 C          20.926      -5.236       0.275
 C          18.876       1.083      -0.271
 C          18.621     -13.998       0.462
 C          20.190      -6.484       0.333
 C          18.139      -0.151      -0.408
 C          17.878     -15.202       0.623
 C          18.760      -6.489      -0.073
 C          16.652      -0.136      -0.645
 C          16.442     -15.214       0.596
 C          18.033      -7.758      -0.131
 C          15.675     -16.446       0.786
 C          16.562      -7.743      -0.399
 C          14.278     -16.428       0.757
 C          20.893      -7.757       0.397
 C          20.175      -9.006       0.337
 C          18.737      -8.993       0.077
 C          20.869     -10.287       0.336
 C          20.169     -11.502       0.192
 C          11.475      -6.401      -0.234
 C          21.040       2.330      -0.120
 C          20.838     -12.819       0.311
 C          20.313       1.079      -0.034
 C          20.097     -13.998       0.416
 C          20.994      -0.184       0.108
 C          10.024      -6.358       0.089
 C          10.038      -3.836      -0.098
 C          10.094      -1.314      -0.088
 C           9.354      -2.567      -0.094
 C           9.320      -5.096      -0.005
 C           9.292      -7.610       0.144
 C           9.395      -0.043      -0.129
