   142
 frame    409
 H          22.172       4.851      -0.067
 H          20.938       7.032      -0.099
 H          18.753       8.311      -0.074
 H          14.063       9.635      -0.055
 H          16.571       9.603      -0.037
 H           9.637       7.173      -0.196
 H           8.348       5.026      -0.217
 H          11.850       8.399      -0.126
 H           8.142     -10.125       0.251
 H           8.313       2.496      -0.186
 H           8.113     -12.652       0.384
 H           9.346     -14.828       0.525
 H          11.529     -16.106       0.629
 H          16.217     -17.428       0.736
 H          13.711     -17.396       0.717
 H          20.647     -14.970       0.637
 H          22.082      -2.727       0.249
 H          22.049      -5.248       0.355
 H          22.011      -7.770       0.426
 H          21.972     -10.296       0.489
 H          22.143       2.322       0.013
 H          21.936     -12.823       0.564
 H          18.431     -16.193       0.686
 H          22.114      -0.204       0.122
 H           8.238      -2.554      -0.062
 H           8.203      -5.077       0.031
 H           8.170      -7.600       0.134
 H           8.273      -0.032      -0.137
 C          18.921       3.602      -0.639
 C          20.378       3.573      -0.367
 C          21.075       4.867      -0.200
 C          16.746       4.860      -0.571
 C          18.200       4.873      -0.627
 C          18.925       6.133      -0.473
 C          20.404       6.074      -0.243
 C          12.335       4.953      -0.690
 C          13.776       4.909      -0.588
 C          14.523       6.157      -0.421
 C          16.020       6.135      -0.429
 C          16.782       7.395      -0.336
 C          18.228       7.365      -0.349
 C          11.630       6.233      -0.552
 C          12.358       7.439      -0.401
 C          13.802       7.434      -0.362
 C          14.601       8.667      -0.174
 C          16.007       8.651      -0.160
 C           9.448       5.012      -0.338
 C          10.155       6.198      -0.343
 C          13.628      -7.668      -0.063
 C          12.165      -7.672      -0.025
 C          11.404      -8.920      -0.169
 C           9.917      -8.859      -0.135
 C          11.534      -1.324      -0.198
 C           9.228     -10.146       0.087
 C          15.830      -8.940      -0.230
 C          14.340      -8.915      -0.257
 C          15.931      -1.420      -0.259
 C          13.592     -10.189      -0.332
 C          14.433      -1.412      -0.301
 C          12.121     -10.189      -0.329
 C          13.705      -2.662      -0.192
 C          11.581       3.702      -0.753
 C          11.369     -11.436      -0.268
 C          12.229      -2.631      -0.237
 C          10.116       3.710      -0.507
 C           9.903     -11.401      -0.026
 C          11.465      -3.868      -0.148
 C           9.400       2.481      -0.348
 C           9.207     -12.679       0.243
 C          20.308      -1.466      -0.095
 C          18.018     -10.256      -0.234
 C          18.829      -1.415      -0.048
 C          16.548     -10.217      -0.284
 C          18.101      -2.705      -0.101
 C          15.991       3.604      -0.587
 C          15.792     -11.454      -0.135
 C          16.624      -2.696      -0.124
 C          14.502       3.629      -0.613
 C          14.306     -11.440      -0.146
 C          13.760       2.383      -0.704
 C          13.546     -12.690      -0.065
 C          15.864      -3.922      -0.159
 C          14.439      -3.908      -0.204
 C          12.291       2.426      -0.701
 C          12.098     -12.694      -0.150
 C          13.676      -5.122      -0.100
 C          11.556       1.191      -0.468
 C          11.362     -13.953       0.065
 C          12.196      -5.119      -0.140
 C          10.068       1.171      -0.475
 C           9.884     -13.882       0.302
 C          20.965      -2.719       0.179
 C          18.730     -11.517      -0.161
 C          20.282      -3.965       0.239
 C          18.179       2.349      -0.620
 C          17.967     -12.767      -0.072
 C          18.825      -3.955       0.006
 C          16.711       2.342      -0.657
 C          16.521     -12.723      -0.025
 C          18.067      -5.192      -0.012
 C          15.963       1.086      -0.531
 C          15.762     -13.966       0.182
 C          16.588      -5.161      -0.042
 C          14.472       1.102      -0.559
 C          14.260     -13.953       0.160
 C          15.862      -6.418      -0.108
 C          13.735      -0.115      -0.299
 C          13.510     -15.203       0.313
 C          14.372      -6.402      -0.142
 C          12.280      -0.071      -0.267
 C          12.063     -15.168       0.294
 C          20.941      -5.218       0.269
 C          18.877       1.090      -0.364
 C          18.662     -14.034       0.142
 C          20.246      -6.467       0.087
 C          18.122      -0.145      -0.153
 C          17.924     -15.242       0.348
 C          18.767      -6.479       0.139
 C          16.667      -0.145      -0.238
 C          16.481     -15.238       0.333
 C          18.024      -7.745       0.093
 C          15.681     -16.467       0.577
 C          16.566      -7.703      -0.001
 C          14.282     -16.453       0.564
 C          20.948      -7.730       0.074
 C          20.242      -8.988       0.057
 C          18.755      -9.008      -0.021
 C          20.889     -10.291       0.270
 C          20.187     -11.524       0.132
 C          11.454      -6.398      -0.010
 C          21.057       2.336      -0.169
 C          20.847     -12.814       0.407
 C          20.363       1.043      -0.299
 C          20.142     -14.005       0.422
 C          21.044      -0.220      -0.211
 C           9.987      -6.341      -0.146
 C          10.008      -3.836      -0.003
 C          10.064      -1.341      -0.329
 C           9.355      -2.578      -0.098
 C           9.316      -5.075      -0.004
 C           9.241      -7.586      -0.181
 C           9.357      -0.078      -0.430
