   142
 frame    692
 H          22.172       4.851      -0.067
 H          20.938       7.032      -0.099
 H          18.753       8.311      -0.074
 H          14.063       9.635      -0.055
 H          16.571       9.603      -0.037
 H           9.637       7.173      -0.196
 H           8.348       5.026      -0.217
 H          11.850       8.399      -0.126
 H           8.142     -10.125       0.251
 H           8.313       2.496      -0.186
 H           8.113     -12.652       0.384
 H           9.346     -14.828       0.525
 H          11.529     -16.106       0.629
 H          16.217     -17.428       0.736
 H          13.711     -17.396       0.717
 H          20.647     -14.970       0.637
 H          22.082      -2.727       0.249
 H          22.049      -5.248       0.355
 H          22.011      -7.770       0.426
 H          21.972     -10.296       0.489
 H          22.143       2.322       0.013
 H          21.936     -12.823       0.564
 H          18.431     -16.193       0.686
 H          22.114      -0.204       0.122
 H           8.238      -2.554      -0.062
 H           8.203      -5.077       0.031
 H           8.170      -7.600       0.134
 H           8.273      -0.032      -0.137
 C          18.930       3.611       0.434
 C          20.384       3.565       0.354
 C          21.083       4.890       0.189
 C          16.754       4.947       0.452
 C          18.232       4.920       0.497
 C          18.935       6.209       0.343
 C          20.411       6.101       0.129
 C          12.280       4.993       0.431
 C          13.750       4.978       0.413
 C          14.536       6.222       0.428
 C          15.999       6.201       0.428
 C          16.740       7.449       0.322
 C          18.182       7.396       0.162
 C          11.611       6.299       0.273
 C          12.394       7.470       0.111
 C          13.838       7.486       0.301
 C          14.598       8.712       0.238
 C          16.000       8.690       0.240
 C           9.433       5.038       0.073
 C          10.137       6.235       0.040
 C          13.637      -7.651       0.507
 C          12.167      -7.622       0.364
 C          11.435      -8.901       0.355
 C           9.994      -8.891       0.226
 C          11.503      -1.327       0.127
 C           9.245     -10.126       0.406
 C          15.804      -8.977       0.542
 C          14.343      -8.960       0.523
 C          15.902      -1.402       0.214
 C          13.617     -10.247       0.541
 C          14.442      -1.381       0.192
 C          12.124     -10.168       0.591
 C          13.685      -2.637       0.041
 C          11.547       3.693       0.363
 C          11.347     -11.379       0.875
 C          12.217      -2.608       0.126
 C          10.100       3.692       0.226
 C           9.896     -11.344       0.741
 C          11.463      -3.860       0.215
 C           9.423       2.471      -0.039
 C           9.206     -12.681       0.658
 C          20.321      -1.435       0.172
 C          17.995     -10.251       0.689
 C          18.842      -1.424       0.283
 C          16.502     -10.287       0.585
 C          18.100      -2.684       0.260
 C          15.964       3.733       0.285
 C          15.771     -11.530       0.822
 C          16.641      -2.674       0.100
 C          14.513       3.747       0.283
 C          14.301     -11.515       0.801
 C          13.787       2.488       0.073
 C          13.509     -12.724       0.984
 C          15.905      -3.915      -0.074
 C          14.389      -3.898      -0.109
 C          12.289       2.455       0.136
 C          12.042     -12.689       1.011
 C          13.651      -5.135       0.131
 C          11.569       1.184       0.001
 C          11.353     -13.977       0.935
 C          12.183      -5.124       0.212
 C          10.137       1.213      -0.127
 C           9.877     -13.892       0.711
 C          20.989      -2.729       0.226
 C          18.728     -11.470       0.996
 C          20.296      -3.971       0.273
 C          18.155       2.376       0.211
 C          18.005     -12.762       1.084
 C          18.811      -3.947       0.383
 C          16.668       2.454       0.104
 C          16.533     -12.761       1.020
 C          18.065      -5.192       0.360
 C          15.944       1.160       0.156
 C          15.745     -13.997       1.059
 C          16.602      -5.172       0.210
 C          14.474       1.183       0.139
 C          14.264     -13.982       1.054
 C          15.832      -6.422       0.401
 C          13.734      -0.110       0.243
 C          13.529     -15.228       0.968
 C          14.380      -6.397       0.373
 C          12.271      -0.103       0.090
 C          12.094     -15.175       0.816
 C          20.959      -5.220       0.344
 C          18.846       1.096       0.120
 C          18.660     -14.076       1.008
 C          20.261      -6.497       0.414
 C          18.111      -0.179       0.202
 C          17.883     -15.256       0.859
 C          18.784      -6.470       0.500
 C          16.648      -0.148       0.273
 C          16.441     -15.264       0.994
 C          18.016      -7.690       0.506
 C          15.669     -16.492       0.971
 C          16.538      -7.686       0.570
 C          14.274     -16.473       0.966
 C          20.911      -7.785       0.424
 C          20.159      -9.014       0.435
 C          18.721      -8.990       0.509
 C          20.866     -10.276       0.615
 C          20.181     -11.478       0.904
 C          11.426      -6.383       0.328
 C          21.034       2.326       0.143
 C          20.838     -12.830       0.823
 C          20.291       1.079       0.049
 C          20.135     -14.025       0.830
 C          21.005      -0.169       0.111
 C           9.950      -6.372       0.182
 C           9.984      -3.842       0.036
 C          10.029      -1.300      -0.031
 C           9.332      -2.585      -0.029
 C           9.286      -5.072       0.085
 C           9.273      -7.643       0.177
 C           9.384      -0.013      -0.095
