   142
 frame    648
 H          22.172       4.851      -0.067
 H          20.938       7.032      -0.099
 H          18.753       8.311      -0.074
 H          14.063       9.635      -0.055
 H          16.571       9.603      -0.037
 H           9.637       7.173      -0.196
 H           8.348       5.026      -0.217
 H          11.850       8.399      -0.126
 H           8.142     -10.125       0.251
 H           8.313       2.496      -0.186
 H           8.113     -12.652       0.384
 H           9.346     -14.828       0.525
 H          11.529     -16.106       0.629
 H          16.217     -17.428       0.736
 H          13.711     -17.396       0.717
 H          20.647     -14.970       0.637
 H          22.082      -2.727       0.249
 H          22.049      -5.248       0.355
 H          22.011      -7.770       0.426
 H          21.972     -10.296       0.489
 H          22.143       2.322       0.013
 H          21.936     -12.823       0.564
 H          18.431     -16.193       0.686
 H          22.114      -0.204       0.122
 H           8.238      -2.554      -0.062
 H           8.203      -5.077       0.031
 H           8.170      -7.600       0.134
 H           8.273      -0.032      -0.137
 C          18.864       3.586       0.060
 C          20.348       3.579      -0.028
 C          21.047       4.876      -0.120
 C          16.706       4.844       0.345
 C          18.154       4.851       0.141
 C          18.862       6.116       0.077
 C          20.330       6.071      -0.121
 C          12.357       4.923       0.086
 C          13.789       4.875       0.325
 C          14.543       6.121       0.260
 C          15.994       6.101       0.261
 C          16.729       7.368       0.171
 C          18.160       7.352       0.102
 C          11.686       6.214       0.022
 C          12.413       7.433       0.058
 C          13.850       7.400       0.143
 C          14.607       8.650       0.051
 C          16.002       8.633       0.059
 C           9.475       5.026      -0.253
 C          10.229       6.194      -0.214
 C          13.649      -7.691       0.209
 C          12.204      -7.637       0.290
 C          11.452      -8.857       0.551
 C           9.960      -8.859       0.422
 C          11.545      -1.337      -0.070
 C           9.247     -10.128       0.403
 C          15.806      -8.924       0.645
 C          14.333      -8.905       0.608
 C          15.911      -1.377      -0.176
 C          13.591     -10.129       0.763
 C          14.454      -1.346      -0.213
 C          12.152     -10.106       0.603
 C          13.724      -2.599      -0.043
 C          11.622       3.673      -0.030
 C          11.415     -11.374       0.475
 C          12.248      -2.599      -0.166
 C          10.137       3.706      -0.166
 C           9.939     -11.379       0.350
 C          11.525      -3.872      -0.094
 C           9.408       2.482      -0.038
 C           9.247     -12.680       0.345
 C          20.280      -1.400       0.118
 C          17.952     -10.174       0.703
 C          18.820      -1.431       0.060
 C          16.505     -10.167       0.824
 C          18.079      -2.675      -0.050
 C          15.958       3.594       0.471
 C          15.758     -11.395       0.995
 C          16.608      -2.640       0.013
 C          14.502       3.617       0.471
 C          14.303     -11.378       0.963
 C          13.765       2.374       0.344
 C          13.558     -12.619       0.906
 C          15.875      -3.905       0.236
 C          14.417      -3.885       0.203
 C          12.319       2.389       0.175
 C          12.114     -12.628       0.664
 C          13.687      -5.178       0.075
 C          11.587       1.157       0.205
 C          11.415     -13.912       0.654
 C          12.219      -5.152      -0.073
 C          10.092       1.196       0.058
 C           9.966     -13.875       0.437
 C          20.940      -2.683       0.281
 C          18.660     -11.464       0.596
 C          20.244      -3.960       0.207
 C          18.125       2.319       0.263
 C          17.923     -12.704       0.736
 C          18.768      -3.955       0.054
 C          16.682       2.341       0.384
 C          16.473     -12.654       0.942
 C          18.039      -5.223       0.044
 C          15.939       1.115       0.288
 C          15.737     -13.894       0.899
 C          16.568      -5.211       0.127
 C          14.477       1.140       0.255
 C          14.281     -13.884       0.899
 C          15.838      -6.467       0.002
 C          13.751      -0.081      -0.070
 C          13.547     -15.146       0.822
 C          14.395      -6.449      -0.019
 C          12.313      -0.096       0.007
 C          12.112     -15.144       0.750
 C          20.911      -5.250       0.364
 C          18.820       1.070       0.299
 C          18.598     -13.999       0.732
 C          20.216      -6.529       0.323
 C          18.080      -0.169       0.098
 C          17.869     -15.217       0.812
 C          18.746      -6.478       0.257
 C          16.649      -0.116      -0.021
 C          16.431     -15.179       0.856
 C          17.976      -7.704       0.411
 C          15.674     -16.433       0.799
 C          16.544      -7.729       0.267
 C          14.278     -16.416       0.788
 C          20.924      -7.789       0.470
 C          20.184      -8.997       0.616
 C          18.689      -8.949       0.681
 C          20.867     -10.280       0.611
 C          20.144     -11.505       0.507
 C          11.477      -6.387       0.113
 C          21.042       2.341       0.121
 C          20.802     -12.820       0.480
 C          20.323       1.075       0.226
 C          20.049     -13.997       0.545
 C          21.022      -0.167       0.168
 C          10.007      -6.409       0.087
 C          10.040      -3.840      -0.028
 C          10.080      -1.276      -0.092
 C           9.379      -2.544       0.018
 C           9.337      -5.110       0.094
 C           9.260      -7.639       0.216
 C           9.369      -0.026      -0.066
