   142
 frame    882
 H          22.172       4.851      -0.067
 H          20.938       7.032      -0.099
 H          18.753       8.311      -0.074
 H          14.063       9.635      -0.055
 H          16.571       9.603      -0.037
 H           9.637       7.173      -0.196
 H           8.348       5.026      -0.217
 H          11.850       8.399      -0.126
 H           8.142     -10.125       0.251
 H           8.313       2.496      -0.186
 H           8.113     -12.652       0.384
 H           9.346     -14.828       0.525
 H          11.529     -16.106       0.629
 H          16.217     -17.428       0.736
 H          13.711     -17.396       0.717
 H          20.647     -14.970       0.637
 H          22.082      -2.727       0.249
 H          22.049      -5.248       0.355
 H          22.011      -7.770       0.426
 H          21.972     -10.296       0.489
 H          22.143       2.322       0.013
 H          21.936     -12.823       0.564
 H          18.431     -16.193       0.686
 H          22.114      -0.204       0.122
 H           8.238      -2.554      -0.062
 H           8.203      -5.077       0.031
 H           8.170      -7.600       0.134
 H           8.273      -0.032      -0.137
 C          18.895       3.588       0.262
 C          20.347       3.545       0.179
 C          21.060       4.849       0.058
 C          16.723       4.909       0.056
 C          18.185       4.851      -0.017
 C          18.936       6.115      -0.212
 C          20.393       6.059      -0.111
 C          12.318       4.925      -0.094
 C          13.791       4.942       0.014
 C          14.543       6.162      -0.106
 C          16.008       6.147      -0.078
 C          16.786       7.404      -0.152
 C          18.223       7.369      -0.199
 C          11.616       6.215      -0.287
 C          12.360       7.444      -0.253
 C          13.799       7.436      -0.174
 C          14.616       8.701      -0.233
 C          16.009       8.678      -0.215
 C           9.458       4.995      -0.076
 C          10.155       6.183      -0.209
 C          13.621      -7.640       0.822
 C          12.125      -7.647       0.745
 C          11.380      -8.891       0.778
 C           9.931      -8.839       0.611
 C          11.461      -1.324       0.544
 C           9.234     -10.094       0.494
 C          15.810      -8.928       0.689
 C          14.327      -8.906       0.659
 C          15.902      -1.343       0.965
 C          13.592     -10.156       0.731
 C          14.416      -1.327       0.925
 C          12.122     -10.125       0.818
 C          13.628      -2.578       0.971
 C          11.575       3.675       0.162
 C          11.381     -11.365       0.699
 C          12.146      -2.581       0.844
 C          10.137       3.674       0.044
 C           9.928     -11.344       0.584
 C          11.419      -3.827       0.690
 C           9.407       2.446       0.036
 C           9.217     -12.651       0.526
 C          20.333      -1.435       0.443
 C          17.979     -10.210       0.925
 C          18.863      -1.410       0.695
 C          16.514     -10.193       0.791
 C          18.140      -2.648       0.969
 C          15.970       3.656       0.190
 C          15.765     -11.466       0.699
 C          16.650      -2.614       1.042
 C          14.509       3.676       0.149
 C          14.308     -11.445       0.670
 C          13.751       2.415       0.280
 C          13.550     -12.697       0.604
 C          15.880      -3.873       1.017
 C          14.358      -3.858       0.970
 C          12.273       2.432       0.357
 C          12.092     -12.648       0.502
 C          13.593      -5.118       1.048
 C          11.510       1.214       0.417
 C          11.351     -13.932       0.376
 C          12.108      -5.092       0.927
 C          10.070       1.180       0.235
 C           9.889     -13.863       0.438
 C          21.010      -2.703       0.343
 C          18.694     -11.457       0.803
 C          20.304      -3.957       0.506
 C          18.162       2.364       0.465
 C          17.956     -12.721       0.583
 C          18.837      -3.921       0.846
 C          16.691       2.383       0.346
 C          16.488     -12.735       0.650
 C          18.111      -5.170       1.061
 C          15.943       1.127       0.348
 C          15.739     -13.960       0.573
 C          16.617      -5.147       1.124
 C          14.452       1.148       0.313
 C          14.278     -13.940       0.553
 C          15.835      -6.405       1.148
 C          13.721      -0.097       0.538
 C          13.504     -15.208       0.531
 C          14.344      -6.384       1.113
 C          12.225      -0.064       0.474
 C          12.066     -15.177       0.447
 C          20.970      -5.244       0.451
 C          18.892       1.119       0.552
 C          18.674     -14.022       0.441
 C          20.268      -6.489       0.644
 C          18.137      -0.142       0.592
 C          17.925     -15.248       0.513
 C          18.800      -6.455       0.872
 C          16.646      -0.130       0.599
 C          16.485     -15.242       0.569
 C          18.043      -7.724       0.849
 C          15.678     -16.486       0.551
 C          16.541      -7.668       0.861
 C          14.279     -16.468       0.536
 C          20.922      -7.761       0.620
 C          20.199      -8.970       0.805
 C          18.744      -8.988       0.915
 C          20.875     -10.241       0.684
 C          20.148     -11.471       0.724
 C          11.388      -6.359       0.722
 C          21.039       2.299       0.212
 C          20.820     -12.794       0.677
 C          20.338       1.056       0.400
 C          20.134     -13.996       0.546
 C          21.030      -0.188       0.334
 C           9.942      -6.359       0.403
 C           9.976      -3.829       0.276
 C          10.006      -1.305       0.241
 C           9.305      -2.555       0.074
 C           9.281      -5.096       0.177
 C           9.255      -7.615       0.378
 C           9.349      -0.041       0.112
