   142
 frame    880
 H          22.172       4.851      -0.067
 H          20.938       7.032      -0.099
 H          18.753       8.311      -0.074
 H          14.063       9.635      -0.055
 H          16.571       9.603      -0.037
 H           9.637       7.173      -0.196
 H           8.348       5.026      -0.217
 H          11.850       8.399      -0.126
 H           8.142     -10.125       0.251
 H           8.313       2.496      -0.186
 H           8.113     -12.652       0.384
 H           9.346     -14.828       0.525
 H          11.529     -16.106       0.629
 H          16.217     -17.428       0.736
 H          13.711     -17.396       0.717
 H          20.647     -14.970       0.637
 H          22.082      -2.727       0.249
 H          22.049      -5.248       0.355
 H          22.011      -7.770       0.426
 H          21.972     -10.296       0.489
 H          22.143       2.322       0.013
 H          21.936     -12.823       0.564
 H          18.431     -16.193       0.686
 H          22.114      -0.204       0.122
 H           8.238      -2.554      -0.062
 H           8.203      -5.077       0.031
 H           8.170      -7.600       0.134
 H           8.273      -0.032      -0.137
 C          18.901       3.592       0.259
 C          20.353       3.540       0.176
 C          21.057       4.849       0.051
 C          16.720       4.905       0.052
 C          18.186       4.851      -0.003
 C          18.924       6.111      -0.204
 C          20.388       6.061      -0.121
 C          12.319       4.924      -0.082
 C          13.795       4.935       0.012
 C          14.539       6.157      -0.129
 C          16.010       6.146      -0.102
 C          16.793       7.403      -0.148
 C          18.218       7.364      -0.190
 C          11.627       6.209      -0.276
 C          12.367       7.439      -0.245
 C          13.789       7.435      -0.170
 C          14.616       8.697      -0.217
 C          16.008       8.675      -0.199
 C           9.459       4.996      -0.078
 C          10.161       6.185      -0.220
 C          13.628      -7.639       0.834
 C          12.139      -7.642       0.757
 C          11.369      -8.886       0.760
 C           9.929      -8.839       0.603
 C          11.467      -1.321       0.548
 C           9.229     -10.097       0.490
 C          15.805      -8.934       0.709
 C          14.326      -8.913       0.682
 C          15.902      -1.351       0.964
 C          13.581     -10.150       0.730
 C          14.415      -1.333       0.923
 C          12.109     -10.130       0.815
 C          13.629      -2.577       0.951
 C          11.570       3.674       0.157
 C          11.377     -11.368       0.694
 C          12.151      -2.578       0.835
 C          10.131       3.668       0.038
 C           9.922     -11.337       0.580
 C          11.418      -3.831       0.668
 C           9.408       2.447       0.034
 C           9.220     -12.654       0.520
 C          20.332      -1.429       0.444
 C          17.995     -10.212       0.921
 C          18.854      -1.409       0.698
 C          16.525     -10.188       0.794
 C          18.133      -2.645       0.962
 C          15.971       3.646       0.207
 C          15.767     -11.456       0.718
 C          16.652      -2.617       1.024
 C          14.506       3.669       0.167
 C          14.304     -11.437       0.686
 C          13.738       2.412       0.280
 C          13.555     -12.692       0.603
 C          15.883      -3.875       0.997
 C          14.356      -3.859       0.949
 C          12.260       2.436       0.352
 C          12.094     -12.648       0.518
 C          13.594      -5.119       1.030
 C          11.500       1.210       0.401
 C          11.361     -13.927       0.382
 C          12.112      -5.093       0.921
 C          10.065       1.179       0.229
 C           9.893     -13.865       0.426
 C          20.997      -2.697       0.341
 C          18.698     -11.462       0.800
 C          20.302      -3.957       0.501
 C          18.177       2.368       0.461
 C          17.956     -12.724       0.599
 C          18.840      -3.924       0.825
 C          16.702       2.378       0.346
 C          16.484     -12.730       0.644
 C          18.105      -5.174       1.053
 C          15.944       1.136       0.371
 C          15.741     -13.959       0.554
 C          16.618      -5.150       1.104
 C          14.451       1.154       0.334
 C          14.277     -13.938       0.531
 C          15.834      -6.398       1.146
 C          13.729      -0.100       0.547
 C          13.494     -15.205       0.535
 C          14.346      -6.379       1.111
 C          12.235      -0.068       0.488
 C          12.071     -15.174       0.455
 C          20.960      -5.248       0.448
 C          18.903       1.115       0.536
 C          18.662     -14.018       0.450
 C          20.261      -6.494       0.646
 C          18.124      -0.148       0.604
 C          17.919     -15.241       0.520
 C          18.793      -6.458       0.877
 C          16.635      -0.129       0.610
 C          16.494     -15.240       0.572
 C          18.029      -7.716       0.863
 C          15.677     -16.483       0.567
 C          16.534      -7.670       0.874
 C          14.278     -16.466       0.552
 C          20.929      -7.756       0.619
 C          20.201      -8.972       0.797
 C          18.753      -8.982       0.897
 C          20.878     -10.246       0.682
 C          20.154     -11.464       0.720
 C          11.398      -6.362       0.729
 C          21.041       2.301       0.207
 C          20.817     -12.795       0.670
 C          20.341       1.055       0.394
 C          20.131     -13.997       0.532
 C          21.037      -0.193       0.334
 C           9.945      -6.364       0.404
 C           9.977      -3.831       0.269
 C          10.009      -1.300       0.243
 C           9.318      -2.548       0.073
 C           9.291      -5.104       0.175
 C           9.248      -7.610       0.377
 C           9.343      -0.046       0.109
