   142
 frame     99
 H          22.172       4.851      -0.067
 H          20.938       7.032      -0.099
 H          18.753       8.311      -0.074
 H          14.063       9.635      -0.055
 H          16.571       9.603      -0.037
 H           9.637       7.173      -0.196
 H           8.348       5.026      -0.217
 H          11.850       8.399      -0.126
 H           8.142     -10.125       0.251
 H           8.313       2.496      -0.186
 H           8.113     -12.652       0.384
 H           9.346     -14.828       0.525
 H          11.529     -16.106       0.629
 H          16.217     -17.428       0.736
 H          13.711     -17.396       0.717
 H          20.647     -14.970       0.637
 H          22.082      -2.727       0.249
 H          22.049      -5.248       0.355
 H          22.011      -7.770       0.426
 H          21.972     -10.296       0.489
 H          22.143       2.322       0.013
 H          21.936     -12.823       0.564
 H          18.431     -16.193       0.686
 H          22.114      -0.204       0.122
 H           8.238      -2.554      -0.062
 H           8.203      -5.077       0.031
 H           8.170      -7.600       0.134
 H           8.273      -0.032      -0.137
 C          18.877       3.583       0.026
 C          20.352       3.555      -0.103
 C          21.069       4.855      -0.124
 C          16.704       4.871      -0.050
 C          18.149       4.829      -0.126
 C          18.893       6.100      -0.118
 C          20.379       6.054      -0.066
 C          12.363       4.902      -0.181
 C          13.808       4.908      -0.085
 C          14.548       6.151      -0.137
 C          15.997       6.131      -0.126
 C          16.745       7.377      -0.088
 C          18.187       7.341      -0.060
 C          11.653       6.191      -0.192
 C          12.390       7.414      -0.115
 C          13.833       7.415      -0.111
 C          14.608       8.657      -0.062
 C          16.006       8.639      -0.050
 C           9.448       4.997      -0.259
 C          10.165       6.179      -0.176
 C          13.632      -7.675      -0.117
 C          12.164      -7.653      -0.014
 C          11.420      -8.864       0.367
 C           9.934      -8.853       0.414
 C          11.520      -1.333      -0.308
 C           9.229     -10.125       0.344
 C          15.811      -8.944       0.173
 C          14.349      -8.930       0.144
 C          15.944      -1.417      -0.368
 C          13.615     -10.139       0.533
 C          14.426      -1.404      -0.392
 C          12.129     -10.121       0.590
 C          13.678      -2.646      -0.508
 C          11.605       3.671      -0.061
 C          11.393     -11.383       0.464
 C          12.236      -2.633      -0.329
 C          10.134       3.678      -0.224
 C           9.932     -11.355       0.291
 C          11.483      -3.867      -0.311
 C           9.404       2.472      -0.097
 C           9.217     -12.651       0.335
 C          20.286      -1.444       0.121
 C          17.983     -10.199       0.682
 C          18.850      -1.421      -0.167
 C          16.500     -10.177       0.582
 C          18.103      -2.700      -0.221
 C          15.967       3.638       0.128
 C          15.765     -11.434       0.661
 C          16.668      -2.681      -0.435
 C          14.516       3.649       0.101
 C          14.309     -11.416       0.641
 C          13.790       2.386       0.083
 C          13.564     -12.664       0.512
 C          15.883      -3.940      -0.497
 C          14.430      -3.920      -0.521
 C          12.310       2.404       0.129
 C          12.116     -12.636       0.404
 C          13.646      -5.153      -0.406
 C          11.547       1.159       0.002
 C          11.379     -13.903       0.461
 C          12.199      -5.122      -0.244
 C          10.071       1.185       0.049
 C           9.897     -13.850       0.488
 C          20.970      -2.715       0.161
 C          18.688     -11.477       0.578
 C          20.282      -3.973       0.091
 C          18.143       2.341       0.230
 C          17.929     -12.709       0.486
 C          18.807      -3.963      -0.164
 C          16.666       2.357       0.123
 C          16.479     -12.701       0.551
 C          18.076      -5.193      -0.132
 C          15.948       1.109      -0.201
 C          15.735     -13.944       0.527
 C          16.627      -5.192      -0.332
 C          14.485       1.126      -0.214
 C          14.278     -13.927       0.510
 C          15.875      -6.431      -0.175
 C          13.729      -0.115      -0.393
 C          13.532     -15.176       0.589
 C          14.362      -6.410      -0.206
 C          12.255      -0.091      -0.281
 C          12.090     -15.136       0.596
 C          20.941      -5.235       0.247
 C          18.872       1.072       0.129
 C          18.635     -13.991       0.545
 C          20.214      -6.482       0.329
 C          18.148      -0.164      -0.190
 C          17.893     -15.206       0.652
 C          18.779      -6.487       0.030
 C          16.669      -0.154      -0.327
 C          16.451     -15.209       0.617
 C          18.026      -7.721       0.112
 C          15.677     -16.449       0.695
 C          16.565      -7.711      -0.062
 C          14.279     -16.435       0.685
 C          20.896      -7.727       0.524
 C          20.204      -8.980       0.600
 C          18.727      -8.957       0.499
 C          20.878     -10.273       0.550
 C          20.150     -11.485       0.453
 C          11.452      -6.396      -0.129
 C          21.044       2.327       0.057
 C          20.830     -12.800       0.489
 C          20.344       1.063       0.221
 C          20.116     -13.982       0.603
 C          21.001      -0.213       0.237
 C          10.003      -6.358       0.107
 C          10.004      -3.846      -0.138
 C          10.074      -1.320      -0.086
 C           9.356      -2.572      -0.119
 C           9.320      -5.097      -0.021
 C           9.283      -7.580       0.298
 C           9.383      -0.072       0.020
