   142
 frame    975
 H          22.172       4.851      -0.067
 H          20.938       7.032      -0.099
 H          18.753       8.311      -0.074
 H          14.063       9.635      -0.055
 H          16.571       9.603      -0.037
 H           9.637       7.173      -0.196
 H           8.348       5.026      -0.217
 H          11.850       8.399      -0.126
 H           8.142     -10.125       0.251
 H           8.313       2.496      -0.186
 H           8.113     -12.652       0.384
 H           9.346     -14.828       0.525
 H          11.529     -16.106       0.629
 H          16.217     -17.428       0.736
 H          13.711     -17.396       0.717
 H          20.647     -14.970       0.637
 H          22.082      -2.727       0.249
 H          22.049      -5.248       0.355
 H          22.011      -7.770       0.426
 H          21.972     -10.296       0.489
 H          22.143       2.322       0.013
 H          21.936     -12.823       0.564
 H          18.431     -16.193       0.686
 H          22.114      -0.204       0.122
 H           8.238      -2.554      -0.062
 H           8.203      -5.077       0.031
 H           8.170      -7.600       0.134
 H           8.273      -0.032      -0.137
 C          18.867       3.587      -0.011
 C          20.364       3.568      -0.035
 C          21.077       4.874      -0.002
 C          16.690       4.853       0.054
 C          18.147       4.848      -0.028
 C          18.890       6.103      -0.043
 C          20.390       6.068       0.012
 C          12.365       4.925      -0.075
 C          13.825       4.887       0.006
 C          14.548       6.175       0.164
 C          15.994       6.166       0.184
 C          16.724       7.421       0.067
 C          18.172       7.346      -0.079
 C          11.658       6.193      -0.112
 C          12.407       7.420      -0.118
 C          13.853       7.464       0.047
 C          14.618       8.695      -0.049
 C          15.996       8.665      -0.041
 C           9.441       5.024      -0.136
 C          10.158       6.197      -0.086
 C          13.640      -7.602       0.980
 C          12.196      -7.598       0.738
 C          11.445      -8.822       0.458
 C           9.961      -8.845       0.228
 C          11.542      -1.310       0.609
 C           9.238     -10.145       0.219
 C          15.798      -8.886       0.791
 C          14.329      -8.867       0.769
 C          15.890      -1.409       0.881
 C          13.593     -10.098       0.566
 C          14.421      -1.387       0.855
 C          12.123     -10.118       0.441
 C          13.654      -2.627       0.847
 C          11.605       3.685      -0.106
 C          11.406     -11.383       0.400
 C          12.189      -2.582       0.824
 C          10.117       3.700      -0.164
 C           9.920     -11.378       0.345
 C          11.416      -3.828       0.847
 C           9.406       2.483      -0.204
 C           9.210     -12.671       0.468
 C          20.255      -1.448       0.475
 C          17.986     -10.188       0.533
 C          18.772      -1.395       0.754
 C          16.518     -10.134       0.620
 C          18.102      -2.654       0.958
 C          15.961       3.557       0.006
 C          15.765     -11.368       0.499
 C          16.633      -2.671       0.899
 C          14.516       3.577      -0.024
 C          14.323     -11.353       0.479
 C          13.756       2.349       0.137
 C          13.595     -12.644       0.576
 C          15.871      -3.887       0.898
 C          14.388      -3.865       0.864
 C          12.293       2.397       0.010
 C          12.144     -12.639       0.474
 C          13.622      -5.079       0.933
 C          11.575       1.122       0.130
 C          11.397     -13.898       0.535
 C          12.159      -5.091       0.931
 C          10.099       1.156      -0.122
 C           9.886     -13.862       0.556
 C          20.986      -2.696       0.535
 C          18.677     -11.471       0.503
 C          20.306      -3.950       0.800
 C          18.153       2.327       0.098
 C          17.913     -12.715       0.541
 C          18.841      -3.918       1.022
 C          16.684       2.311       0.189
 C          16.461     -12.682       0.619
 C          18.063      -5.162       1.053
 C          15.932       1.112       0.474
 C          15.730     -13.969       0.807
 C          16.598      -5.110       1.009
 C          14.471       1.125       0.447
 C          14.284     -13.950       0.808
 C          15.826      -6.343       1.070
 C          13.738      -0.104       0.716
 C          13.560     -15.215       0.726
 C          14.347      -6.329       1.038
 C          12.290      -0.101       0.480
 C          12.116     -15.142       0.573
 C          20.954      -5.230       0.644
 C          18.836       1.031       0.250
 C          18.615     -13.988       0.594
 C          20.180      -6.459       0.673
 C          18.071      -0.170       0.596
 C          17.868     -15.222       0.608
 C          18.699      -6.450       0.928
 C          16.612      -0.138       0.766
 C          16.424     -15.255       0.757
 C          17.972      -7.666       0.844
 C          15.664     -16.477       0.697
 C          16.510      -7.640       1.015
 C          14.289     -16.461       0.686
 C          20.884      -7.726       0.481
 C          20.190      -8.970       0.413
 C          18.701      -8.915       0.588
 C          20.883     -10.290       0.417
 C          20.158     -11.501       0.492
 C          11.491      -6.358       0.779
 C          21.046       2.326      -0.033
 C          20.836     -12.819       0.612
 C          20.316       1.024       0.046
 C          20.122     -13.990       0.667
 C          20.988      -0.221       0.187
 C          10.027      -6.341       0.455
 C           9.964      -3.824       0.564
 C          10.080      -1.322       0.280
 C           9.320      -2.552       0.278
 C           9.290      -5.088       0.382
 C           9.298      -7.582       0.240
 C           9.397      -0.070      -0.023
