   142
 frame    452
 H          22.172       4.851      -0.067
 H          20.938       7.032      -0.099
 H          18.753       8.311      -0.074
 H          14.063       9.635      -0.055
 H          16.571       9.603      -0.037
 H           9.637       7.173      -0.196
 H           8.348       5.026      -0.217
 H          11.850       8.399      -0.126
 H           8.142     -10.125       0.251
 H           8.313       2.496      -0.186
 H           8.113     -12.652       0.384
 H           9.346     -14.828       0.525
 H          11.529     -16.106       0.629
 H          16.217     -17.428       0.736
 H          13.711     -17.396       0.717
 H          20.647     -14.970       0.637
 H          22.082      -2.727       0.249
 H          22.049      -5.248       0.355
 H          22.011      -7.770       0.426
 H          21.972     -10.296       0.489
 H          22.143       2.322       0.013
 H          21.936     -12.823       0.564
 H          18.431     -16.193       0.686
 H          22.114      -0.204       0.122
 H           8.238      -2.554      -0.062
 H           8.203      -5.077       0.031
 H           8.170      -7.600       0.134
 H           8.273      -0.032      -0.137
 C          18.924       3.598      -0.494
 C          20.383       3.581      -0.458
 C          21.061       4.868      -0.271
 C          16.734       4.901      -0.615
 C          18.178       4.857      -0.442
 C          18.903       6.115      -0.213
 C          20.381       6.071      -0.151
 C          12.351       4.929      -0.507
 C          13.799       4.946      -0.664
 C          14.550       6.168      -0.357
 C          16.017       6.149      -0.342
 C          16.771       7.378      -0.080
 C          18.222       7.340      -0.066
 C          11.649       6.208      -0.277
 C          12.355       7.411      -0.108
 C          13.811       7.418      -0.111
 C          14.599       8.661      -0.032
 C          16.011       8.640      -0.022
 C           9.470       5.015      -0.411
 C          10.178       6.199      -0.252
 C          13.635      -7.655      -0.134
 C          12.168      -7.641      -0.278
 C          11.409      -8.938      -0.300
 C           9.931      -8.897      -0.111
 C          11.566      -1.339      -0.144
 C           9.221     -10.176      -0.069
 C          15.812      -8.933      -0.122
 C          14.355      -8.907      -0.143
 C          15.901      -1.388      -0.181
 C          13.642     -10.188      -0.175
 C          14.451      -1.377      -0.204
 C          12.157     -10.196      -0.173
 C          13.732      -2.635      -0.153
 C          11.574       3.693      -0.589
 C          11.378     -11.431      -0.090
 C          12.295      -2.603      -0.037
 C          10.120       3.710      -0.571
 C           9.919     -11.421      -0.089
 C          11.564      -3.851       0.198
 C           9.388       2.492      -0.500
 C           9.226     -12.687       0.192
 C          20.249      -1.426       0.212
 C          17.972     -10.269      -0.087
 C          18.787      -1.434      -0.005
 C          16.494     -10.218      -0.131
 C          18.016      -2.675       0.091
 C          15.977       3.637      -0.691
 C          15.779     -11.513      -0.253
 C          16.580      -2.663      -0.101
 C          14.518       3.656      -0.719
 C          14.325     -11.494      -0.263
 C          13.796       2.382      -0.551
 C          13.568     -12.742      -0.120
 C          15.878      -3.908      -0.275
 C          14.410      -3.896      -0.313
 C          12.309       2.434      -0.587
 C          12.116     -12.674       0.048
 C          13.706      -5.136      -0.078
 C          11.540       1.187      -0.633
 C          11.388     -13.909       0.349
 C          12.267      -5.122       0.022
 C          10.067       1.191      -0.453
 C           9.915     -13.869       0.423
 C          20.936      -2.692       0.311
 C          18.716     -11.521       0.013
 C          20.212      -3.963       0.438
 C          18.152       2.356      -0.495
 C          17.943     -12.746       0.116
 C          18.700      -3.937       0.361
 C          16.669       2.343      -0.514
 C          16.499     -12.777      -0.084
 C          17.983      -5.200       0.165
 C          15.943       1.084      -0.420
 C          15.745     -13.979       0.273
 C          16.550      -5.178      -0.013
 C          14.480       1.104      -0.437
 C          14.280     -13.968       0.246
 C          15.835      -6.441      -0.008
 C          13.736      -0.129      -0.367
 C          13.516     -15.183       0.573
 C          14.382      -6.417      -0.039
 C          12.263      -0.118      -0.520
 C          12.070     -15.124       0.591
 C          20.906      -5.253       0.415
 C          18.888       1.091      -0.492
 C          18.636     -13.996       0.422
 C          20.181      -6.500       0.388
 C          18.141      -0.193      -0.393
 C          17.920     -15.202       0.643
 C          18.713      -6.458       0.161
 C          16.661      -0.166      -0.317
 C          16.472     -15.219       0.592
 C          18.036      -7.706      -0.168
 C          15.679     -16.456       0.692
 C          16.565      -7.694      -0.077
 C          14.275     -16.443       0.682
 C          20.875      -7.771       0.426
 C          20.226      -9.026       0.080
 C          18.758      -9.024      -0.165
 C          20.900     -10.318       0.136
 C          20.176     -11.542       0.068
 C          11.505      -6.376       0.011
 C          21.077       2.341      -0.333
 C          20.827     -12.829       0.338
 C          20.361       1.072      -0.268
 C          20.109     -14.001       0.537
 C          20.980      -0.167       0.149
 C          10.033      -6.372       0.186
 C          10.057      -3.836       0.220
 C          10.101      -1.300       0.012
 C           9.373      -2.549       0.084
 C           9.334      -5.112       0.160
 C           9.302      -7.631       0.202
 C           9.404      -0.028      -0.059
