   142
 frame    395
 H          22.172       4.851      -0.067
 H          20.938       7.032      -0.099
 H          18.753       8.311      -0.074
 H          14.063       9.635      -0.055
 H          16.571       9.603      -0.037
 H           9.637       7.173      -0.196
 H           8.348       5.026      -0.217
 H          11.850       8.399      -0.126
 H           8.142     -10.125       0.251
 H           8.313       2.496      -0.186
 H           8.113     -12.652       0.384
 H           9.346     -14.828       0.525
 H          11.529     -16.106       0.629
 H          16.217     -17.428       0.736
 H          13.711     -17.396       0.717
 H          20.647     -14.970       0.637
 H          22.082      -2.727       0.249
 H          22.049      -5.248       0.355
 H          22.011      -7.770       0.426
 H          21.972     -10.296       0.489
 H          22.143       2.322       0.013
 H          21.936     -12.823       0.564
 H          18.431     -16.193       0.686
 H          22.114      -0.204       0.122
 H           8.238      -2.554      -0.062
 H           8.203      -5.077       0.031
 H           8.170      -7.600       0.134
 H           8.273      -0.032      -0.137
 C          18.907       3.594      -0.587
 C          20.383       3.596      -0.391
 C          21.087       4.876      -0.231
 C          16.722       4.879      -0.624
 C          18.211       4.861      -0.699
 C          18.961       6.145      -0.469
 C          20.399       6.078      -0.220
 C          12.313       4.945      -0.777
 C          13.805       4.915      -0.660
 C          14.562       6.169      -0.476
 C          16.005       6.150      -0.467
 C          16.743       7.413      -0.409
 C          18.196       7.373      -0.350
 C          11.599       6.236      -0.531
 C          12.387       7.453      -0.397
 C          13.844       7.455      -0.436
 C          14.611       8.692      -0.314
 C          16.006       8.670      -0.304
 C           9.433       5.022      -0.370
 C          10.146       6.213      -0.329
 C          13.633      -7.648      -0.209
 C          12.160      -7.659      -0.170
 C          11.429      -8.914      -0.131
 C           9.963      -8.922      -0.013
 C          11.552      -1.358      -0.383
 C           9.243     -10.166       0.085
 C          15.813      -8.918      -0.316
 C          14.360      -8.910      -0.344
 C          15.897      -1.410      -0.196
 C          13.626     -10.163      -0.184
 C          14.468      -1.384      -0.224
 C          12.146     -10.162      -0.180
 C          13.719      -2.611      -0.167
 C          11.589       3.690      -0.680
 C          11.390     -11.426      -0.224
 C          12.281      -2.596      -0.257
 C          10.112       3.719      -0.534
 C           9.909     -11.408      -0.040
 C          11.575      -3.858      -0.199
 C           9.419       2.498      -0.347
 C           9.207     -12.683       0.207
 C          20.305      -1.449      -0.121
 C          17.985     -10.231      -0.074
 C          18.822      -1.447      -0.224
 C          16.507     -10.202      -0.142
 C          18.050      -2.666      -0.123
 C          15.971       3.611      -0.591
 C          15.775     -11.458      -0.131
 C          16.614      -2.645      -0.101
 C          14.517       3.626      -0.603
 C          14.322     -11.442      -0.152
 C          13.785       2.375      -0.560
 C          13.569     -12.714      -0.131
 C          15.891      -3.919      -0.088
 C          14.402      -3.898      -0.119
 C          12.312       2.413      -0.567
 C          12.079     -12.710      -0.246
 C          13.678      -5.171      -0.084
 C          11.566       1.182      -0.436
 C          11.335     -13.967       0.076
 C          12.245      -5.148      -0.154
 C          10.102       1.228      -0.329
 C           9.891     -13.883       0.323
 C          20.983      -2.722       0.026
 C          18.712     -11.516      -0.116
 C          20.212      -3.959       0.091
 C          18.153       2.334      -0.474
 C          17.984     -12.772      -0.177
 C          18.723      -3.948      -0.030
 C          16.674       2.339      -0.531
 C          16.491     -12.745      -0.082
 C          18.017      -5.217      -0.037
 C          15.948       1.063      -0.624
 C          15.734     -13.985       0.141
 C          16.580      -5.202      -0.032
 C          14.497       1.087      -0.649
 C          14.296     -13.969       0.113
 C          15.834      -6.435      -0.044
 C          13.741      -0.150      -0.443
 C          13.544     -15.228       0.251
 C          14.396      -6.416      -0.069
 C          12.263      -0.096      -0.410
 C          12.086     -15.190       0.294
 C          20.940      -5.235       0.132
 C          18.874       1.092      -0.310
 C          18.696     -14.057       0.164
 C          20.231      -6.501       0.073
 C          18.136      -0.172      -0.296
 C          17.916     -15.256       0.337
 C          18.753      -6.470      -0.038
 C          16.662      -0.191      -0.389
 C          16.454     -15.260       0.283
 C          18.042      -7.728      -0.033
 C          15.681     -16.489       0.424
 C          16.571      -7.680      -0.153
 C          14.278     -16.470       0.419
 C          20.904      -7.801       0.224
 C          20.197      -9.044       0.194
 C          18.736      -9.001       0.010
 C          20.887     -10.311       0.272
 C          20.186     -11.534       0.108
 C          11.486      -6.375      -0.190
 C          21.045       2.356      -0.174
 C          20.845     -12.825       0.369
 C          20.331       1.098      -0.160
 C          20.127     -14.012       0.445
 C          21.005      -0.169      -0.055
 C           9.998      -6.377      -0.160
 C          10.076      -3.838      -0.155
 C          10.063      -1.318      -0.345
 C           9.345      -2.575      -0.243
 C           9.316      -5.093      -0.152
 C           9.290      -7.654      -0.019
 C           9.391      -0.021      -0.275
