   142
 frame    525
 H          22.172       4.851      -0.067
 H          20.938       7.032      -0.099
 H          18.753       8.311      -0.074
 H          14.063       9.635      -0.055
 H          16.571       9.603      -0.037
 H           9.637       7.173      -0.196
 H           8.348       5.026      -0.217
 H          11.850       8.399      -0.126
 H           8.142     -10.125       0.251
 H           8.313       2.496      -0.186
 H           8.113     -12.652       0.384
 H           9.346     -14.828       0.525
 H          11.529     -16.106       0.629
 H          16.217     -17.428       0.736
 H          13.711     -17.396       0.717
 H          20.647     -14.970       0.637
 H          22.082      -2.727       0.249
 H          22.049      -5.248       0.355
 H          22.011      -7.770       0.426
 H          21.972     -10.296       0.489
 H          22.143       2.322       0.013
 H          21.936     -12.823       0.564
 H          18.431     -16.193       0.686
 H          22.114      -0.204       0.122
 H           8.238      -2.554      -0.062
 H           8.203      -5.077       0.031
 H           8.170      -7.600       0.134
 H           8.273      -0.032      -0.137
 C          18.876       3.601       0.053
 C          20.337       3.574       0.058
 C          21.052       4.876      -0.023
 C          16.709       4.833      -0.263
 C          18.169       4.854      -0.153
 C          18.900       6.143      -0.192
 C          20.371       6.083      -0.068
 C          12.353       4.920      -0.223
 C          13.803       4.872      -0.306
 C          14.555       6.119      -0.258
 C          15.993       6.097      -0.253
 C          16.753       7.371      -0.226
 C          18.204       7.373      -0.236
 C          11.652       6.234      -0.268
 C          12.381       7.450      -0.267
 C          13.836       7.408      -0.248
 C          14.606       8.661      -0.172
 C          16.010       8.644      -0.164
 C           9.473       5.017      -0.170
 C          10.170       6.210      -0.191
 C          13.671      -7.649      -0.103
 C          12.205      -7.641      -0.155
 C          11.460      -8.869       0.109
 C          10.001      -8.846       0.203
 C          11.561      -1.355      -0.167
 C           9.279     -10.124       0.267
 C          15.823      -8.937      -0.141
 C          14.344      -8.925      -0.163
 C          15.907      -1.403      -0.044
 C          13.595     -10.122       0.071
 C          14.458      -1.388      -0.067
 C          12.158     -10.124       0.281
 C          13.724      -2.627       0.007
 C          11.615       3.677      -0.030
 C          11.424     -11.388       0.462
 C          12.275      -2.624      -0.061
 C          10.144       3.694      -0.087
 C           9.947     -11.363       0.430
 C          11.519      -3.860      -0.039
 C           9.442       2.465      -0.140
 C           9.230     -12.668       0.417
 C          20.290      -1.468       0.097
 C          17.966     -10.201       0.373
 C          18.790      -1.439      -0.030
 C          16.531     -10.164       0.113
 C          18.051      -2.692       0.046
 C          15.978       3.582      -0.386
 C          15.779     -11.419       0.109
 C          16.603      -2.666       0.034
 C          14.515       3.606      -0.401
 C          14.311     -11.407       0.090
 C          13.774       2.349      -0.337
 C          13.572     -12.644       0.262
 C          15.874      -3.919      -0.056
 C          14.419      -3.906      -0.072
 C          12.316       2.393      -0.141
 C          12.115     -12.661       0.347
 C          13.684      -5.150       0.073
 C          11.592       1.152      -0.232
 C          11.382     -13.947       0.390
 C          12.235      -5.120       0.007
 C          10.136       1.175      -0.140
 C           9.900     -13.880       0.473
 C          20.983      -2.733       0.082
 C          18.657     -11.488       0.561
 C          20.261      -3.978      -0.046
 C          18.147       2.321      -0.061
 C          17.929     -12.731       0.417
 C          18.776      -3.941       0.107
 C          16.698       2.311      -0.302
 C          16.471     -12.680       0.303
 C          18.018      -5.189       0.120
 C          15.958       1.097      -0.450
 C          15.724     -13.930       0.382
 C          16.571      -5.190       0.111
 C          14.480       1.115      -0.473
 C          14.295     -13.913       0.367
 C          15.836      -6.420       0.116
 C          13.765      -0.131      -0.325
 C          13.544     -15.187       0.435
 C          14.389      -6.403       0.094
 C          12.304      -0.115      -0.387
 C          12.086     -15.180       0.419
 C          20.947      -5.234       0.189
 C          18.833       1.065      -0.107
 C          18.636     -14.038       0.466
 C          20.218      -6.477       0.282
 C          18.097      -0.186      -0.270
 C          17.900     -15.251       0.467
 C          18.717      -6.460       0.119
 C          16.638      -0.164      -0.294
 C          16.449     -15.219       0.459
 C          17.994      -7.718      -0.047
 C          15.677     -16.471       0.558
 C          16.532      -7.688      -0.065
 C          14.273     -16.454       0.549
 C          20.897      -7.746       0.427
 C          20.149      -8.971       0.400
 C          18.700      -8.968       0.240
 C          20.842     -10.264       0.462
 C          20.136     -11.497       0.574
 C          11.501      -6.370      -0.010
 C          21.013       2.332       0.010
 C          20.819     -12.815       0.571
 C          20.286       1.053       0.030
 C          20.116     -14.011       0.577
 C          20.997      -0.193       0.141
 C          10.005      -6.341       0.065
 C          10.043      -3.858      -0.281
 C          10.059      -1.344      -0.104
 C           9.344      -2.594      -0.161
 C           9.316      -5.087      -0.073
 C           9.291      -7.594       0.197
 C           9.391      -0.057      -0.076
