   142
 frame     67
 H          22.172       4.851      -0.067
 H          20.938       7.032      -0.099
 H          18.753       8.311      -0.074
 H          14.063       9.635      -0.055
 H          16.571       9.603      -0.037
 H           9.637       7.173      -0.196
 H           8.348       5.026      -0.217
 H          11.850       8.399      -0.126
 H           8.142     -10.125       0.251
 H           8.313       2.496      -0.186
 H           8.113     -12.652       0.384
 H           9.346     -14.828       0.525
 H          11.529     -16.106       0.629
 H          16.217     -17.428       0.736
 H          13.711     -17.396       0.717
 H          20.647     -14.970       0.637
 H          22.082      -2.727       0.249
 H          22.049      -5.248       0.355
 H          22.011      -7.770       0.426
 H          21.972     -10.296       0.489
 H          22.143       2.322       0.013
 H          21.936     -12.823       0.564
 H          18.431     -16.193       0.686
 H          22.114      -0.204       0.122
 H           8.238      -2.554      -0.062
 H           8.203      -5.077       0.031
 H           8.170      -7.600       0.134
 H           8.273      -0.032      -0.137
 C          18.882       3.587      -0.076
 C          20.367       3.579      -0.025
 C          21.077       4.877      -0.043
 C          16.714       4.864      -0.093
 C          18.178       4.861      -0.051
 C          18.920       6.136      -0.053
 C          20.390       6.076      -0.074
 C          12.342       4.938      -0.121
 C          13.805       4.901      -0.126
 C          14.544       6.161      -0.088
 C          16.005       6.142      -0.072
 C          16.756       7.400      -0.060
 C          18.198       7.361      -0.068
 C          11.630       6.231      -0.123
 C          12.382       7.437      -0.116
 C          13.824       7.438      -0.085
 C          14.608       8.672      -0.065
 C          16.003       8.654      -0.056
 C           9.441       5.030      -0.172
 C          10.159       6.208      -0.170
 C          13.646      -7.610       0.219
 C          12.189      -7.575       0.390
 C          11.435      -8.850       0.378
 C           9.966      -8.851       0.219
 C          11.561      -1.351      -0.000
 C           9.258     -10.127       0.240
 C          15.791      -8.866       0.571
 C          14.338      -8.845       0.548
 C          15.912      -1.368      -0.433
 C          13.604     -10.113       0.474
 C          14.460      -1.349      -0.433
 C          12.149     -10.118       0.323
 C          13.680      -2.649      -0.493
 C          11.604       3.682      -0.174
 C          11.408     -11.382       0.349
 C          12.230      -2.604      -0.274
 C          10.119       3.715      -0.162
 C           9.927     -11.373       0.360
 C          11.537      -3.863      -0.148
 C           9.432       2.472      -0.202
 C           9.215     -12.670       0.427
 C          20.270      -1.451       0.257
 C          17.964     -10.190       0.426
 C          18.792      -1.442       0.155
 C          16.502     -10.149       0.525
 C          18.097      -2.678      -0.158
 C          15.971       3.588      -0.092
 C          15.772     -11.407       0.443
 C          16.661      -2.682      -0.426
 C          14.510       3.608      -0.103
 C          14.312     -11.386       0.419
 C          13.772       2.358       0.015
 C          13.574     -12.655       0.465
 C          15.927      -3.927      -0.308
 C          14.363      -3.903      -0.326
 C          12.316       2.395      -0.124
 C          12.115     -12.647       0.472
 C          13.649      -5.170      -0.407
 C          11.575       1.152       0.007
 C          11.373     -13.919       0.535
 C          12.201      -5.152      -0.177
 C          10.110       1.178      -0.142
 C           9.900     -13.870       0.493
 C          20.978      -2.700       0.380
 C          18.675     -11.470       0.461
 C          20.240      -3.954       0.350
 C          18.129       2.318      -0.051
 C          17.938     -12.717       0.549
 C          18.759      -3.952       0.023
 C          16.670       2.321       0.052
 C          16.481     -12.692       0.504
 C          18.054      -5.222      -0.041
 C          15.925       1.066       0.198
 C          15.739     -13.946       0.580
 C          16.628      -5.205      -0.343
 C          14.472       1.083       0.157
 C          14.280     -13.929       0.565
 C          15.844      -6.486      -0.225
 C          13.748      -0.152      -0.059
 C          13.530     -15.186       0.620
 C          14.385      -6.470      -0.264
 C          12.293      -0.130       0.099
 C          12.088     -15.149       0.594
 C          20.957      -5.224       0.494
 C          18.836       1.061       0.114
 C          18.644     -14.009       0.617
 C          20.221      -6.456       0.456
 C          18.085      -0.195       0.221
 C          17.896     -15.222       0.649
 C          18.730      -6.439       0.334
 C          16.631      -0.189      -0.001
 C          16.455     -15.222       0.647
 C          17.987      -7.651       0.498
 C          15.674     -16.460       0.690
 C          16.533      -7.647       0.273
 C          14.278     -16.442       0.679
 C          20.904      -7.738       0.463
 C          20.182      -8.975       0.419
 C          18.707      -8.944       0.518
 C          20.858     -10.265       0.441
 C          20.152     -11.493       0.516
 C          11.481      -6.348       0.192
 C          21.026       2.321      -0.027
 C          20.832     -12.808       0.581
 C          20.308       1.046       0.019
 C          20.119     -13.995       0.609
 C          21.001      -0.198       0.144
 C           9.997      -6.329       0.239
 C          10.050      -3.830       0.131
 C          10.079      -1.325       0.057
 C           9.331      -2.556       0.154
 C           9.288      -5.076       0.246
 C           9.279      -7.591       0.216
 C           9.385      -0.053      -0.057
