   142
 frame     19
 H          22.172       4.851      -0.067
 H          20.938       7.032      -0.099
 H          18.753       8.311      -0.074
 H          14.063       9.635      -0.055
 H          16.571       9.603      -0.037
 H           9.637       7.173      -0.196
 H           8.348       5.026      -0.217
 H          11.850       8.399      -0.126
 H           8.142     -10.125       0.251
 H           8.313       2.496      -0.186
 H           8.113     -12.652       0.384
 H           9.346     -14.828       0.525
 H          11.529     -16.106       0.629
 H          16.217     -17.428       0.736
 H          13.711     -17.396       0.717
 H          20.647     -14.970       0.637
 H          22.082      -2.727       0.249
 H          22.049      -5.248       0.355
 H          22.011      -7.770       0.426
 H          21.972     -10.296       0.489
 H          22.143       2.322       0.013
 H          21.936     -12.823       0.564
 H          18.431     -16.193       0.686
 H          22.114      -0.204       0.122
 H           8.238      -2.554      -0.062
 H           8.203      -5.077       0.031
 H           8.170      -7.600       0.134
 H           8.273      -0.032      -0.137
 C          18.882       3.600      -0.034
 C          20.354       3.577      -0.030
 C          21.065       4.869      -0.061
 C          16.714       4.878      -0.062
 C          18.170       4.861      -0.057
 C          18.909       6.129      -0.070
 C          20.384       6.074      -0.079
 C          12.347       4.933      -0.121
 C          13.802       4.914      -0.094
 C          14.545       6.164      -0.085
 C          16.003       6.145      -0.071
 C          16.751       7.399      -0.066
 C          18.191       7.358      -0.070
 C          11.640       6.220      -0.139
 C          12.388       7.431      -0.119
 C          13.829       7.435      -0.090
 C          14.608       8.672      -0.065
 C          16.002       8.654      -0.055
 C           9.455       5.015      -0.189
 C          10.166       6.202      -0.177
 C          13.647      -7.624       0.283
 C          12.177      -7.625       0.256
 C          11.431      -8.884       0.291
 C           9.959      -8.868       0.248
 C          11.552      -1.360      -0.008
 C           9.248     -10.137       0.284
 C          15.804      -8.919       0.364
 C          14.345      -8.902       0.336
 C          15.895      -1.401       0.267
 C          13.603     -10.158       0.394
 C          14.449      -1.375       0.267
 C          12.140     -10.146       0.363
 C          13.697      -2.640       0.124
 C          11.604       3.691      -0.126
 C          11.402     -11.398       0.400
 C          12.223      -2.605       0.212
 C          10.132       3.704      -0.160
 C           9.930     -11.377       0.363
 C          11.518      -3.856       0.151
 C           9.418       2.481      -0.159
 C           9.220     -12.669       0.410
 C          20.285      -1.453       0.144
 C          17.975     -10.218       0.463
 C          18.805      -1.448       0.132
 C          16.512     -10.194       0.443
 C          18.082      -2.682       0.302
 C          15.972       3.624      -0.052
 C          15.771     -11.440       0.483
 C          16.620      -2.672       0.219
 C          14.512       3.641      -0.070
 C          14.311     -11.423       0.462
 C          13.772       2.391      -0.067
 C          13.569     -12.676       0.501
 C          15.822      -3.900       0.135
 C          14.431      -3.873       0.126
 C          12.309       2.419      -0.092
 C          12.113     -12.659       0.473
 C          13.676      -5.103       0.226
 C          11.568       1.172      -0.081
 C          11.373     -13.926       0.520
 C          12.190      -5.116       0.310
 C          10.095       1.194      -0.117
 C           9.901     -13.871       0.488
 C          20.972      -2.715       0.224
 C          18.680     -11.488       0.510
 C          20.256      -3.965       0.254
 C          18.143       2.347      -0.006
 C          17.937     -12.731       0.548
 C          18.772      -3.946       0.308
 C          16.680       2.355      -0.022
 C          16.481     -12.712       0.538
 C          18.053      -5.189       0.438
 C          15.940       1.093      -0.019
 C          15.737     -13.959       0.581
 C          16.573      -5.134       0.282
 C          14.479       1.109      -0.045
 C          14.279     -13.941       0.566
 C          15.834      -6.407       0.506
 C          13.751      -0.151      -0.002
 C          13.531     -15.194       0.613
 C          14.375      -6.386       0.471
 C          12.281      -0.108      -0.031
 C          12.091     -15.153       0.592
 C          20.940      -5.233       0.331
 C          18.851       1.082       0.042
 C          18.642     -14.017       0.599
 C          20.220      -6.478       0.348
 C          18.106      -0.178       0.074
 C          17.894     -15.226       0.646
 C          18.741      -6.453       0.345
 C          16.636      -0.185       0.040
 C          16.453     -15.230       0.640
 C          18.007      -7.698       0.379
 C          15.673     -16.466       0.689
 C          16.541      -7.663       0.345
 C          14.279     -16.447       0.678
 C          20.902      -7.751       0.412
 C          20.190      -8.994       0.446
 C          18.717      -8.975       0.432
 C          20.866     -10.280       0.485
 C          20.152     -11.503       0.518
 C          11.480      -6.361       0.185
 C          21.036       2.335       0.009
 C          20.830     -12.814       0.562
 C          20.327       1.066       0.054
 C          20.117     -13.999       0.602
 C          21.003      -0.195       0.109
 C          10.002      -6.351       0.120
 C          10.037      -3.839       0.016
 C          10.074      -1.327      -0.069
 C           9.350      -2.571      -0.036
 C           9.314      -5.088       0.060
 C           9.282      -7.607       0.167
 C           9.386      -0.052      -0.110
