   142
 frame    316
 H          22.172       4.851      -0.067
 H          20.938       7.032      -0.099
 H          18.753       8.311      -0.074
 H          14.063       9.635      -0.055
 H          16.571       9.603      -0.037
 H           9.637       7.173      -0.196
 H           8.348       5.026      -0.217
 H          11.850       8.399      -0.126
 H           8.142     -10.125       0.251
 H           8.313       2.496      -0.186
 H           8.113     -12.652       0.384
 H           9.346     -14.828       0.525
 H          11.529     -16.106       0.629
 H          16.217     -17.428       0.736
 H          13.711     -17.396       0.717
 H          20.647     -14.970       0.637
 H          22.082      -2.727       0.249
 H          22.049      -5.248       0.355
 H          22.011      -7.770       0.426
 H          21.972     -10.296       0.489
 H          22.143       2.322       0.013
 H          21.936     -12.823       0.564
 H          18.431     -16.193       0.686
 H          22.114      -0.204       0.122
 H           8.238      -2.554      -0.062
 H           8.203      -5.077       0.031
 H           8.170      -7.600       0.134
 H           8.273      -0.032      -0.137
 C          18.873       3.607      -0.300
 C          20.342       3.589      -0.042
 C          21.056       4.872       0.157
 C          16.695       4.848      -0.612
 C          18.166       4.849      -0.496
 C          18.875       6.109      -0.250
 C          20.343       6.075       0.055
 C          12.364       4.923      -0.559
 C          13.831       4.880      -0.650
 C          14.548       6.152      -0.524
 C          15.998       6.131      -0.510
 C          16.733       7.403      -0.387
 C          18.150       7.344      -0.244
 C          11.683       6.195      -0.308
 C          12.430       7.416      -0.279
 C          13.845       7.441      -0.418
 C          14.604       8.692      -0.340
 C          16.006       8.673      -0.341
 C           9.453       5.021       0.019
 C          10.209       6.201      -0.045
 C          13.657      -7.694      -0.145
 C          12.184      -7.680      -0.189
 C          11.424      -8.908      -0.005
 C           9.953      -8.868      -0.034
 C          11.558      -1.347      -0.423
 C           9.273     -10.150       0.149
 C          15.813      -8.967      -0.243
 C          14.349      -8.955      -0.275
 C          15.908      -1.411      -0.376
 C          13.609     -10.193      -0.254
 C          14.461      -1.393      -0.411
 C          12.162     -10.170      -0.029
 C          13.709      -2.623      -0.567
 C          11.617       3.699      -0.398
 C          11.411     -11.421       0.089
 C          12.242      -2.635      -0.430
 C          10.146       3.718      -0.177
 C           9.942     -11.386       0.326
 C          11.502      -3.872      -0.299
 C           9.444       2.485      -0.270
 C           9.238     -12.661       0.609
 C          20.279      -1.448      -0.133
 C          17.960     -10.239       0.076
 C          18.809      -1.437      -0.271
 C          16.522     -10.232      -0.208
 C          18.092      -2.709      -0.292
 C          15.971       3.606      -0.706
 C          15.775     -11.465      -0.247
 C          16.634      -2.664      -0.490
 C          14.523       3.621      -0.736
 C          14.325     -11.450      -0.265
 C          13.774       2.393      -0.647
 C          13.588     -12.679      -0.123
 C          15.919      -3.955      -0.794
 C          14.405      -3.932      -0.834
 C          12.328       2.418      -0.430
 C          12.124     -12.671      -0.021
 C          13.672      -5.187      -0.464
 C          11.557       1.172      -0.324
 C          11.420     -13.917       0.308
 C          12.205      -5.138      -0.350
 C          10.087       1.178      -0.367
 C           9.957     -13.865       0.592
 C          20.972      -2.715       0.042
 C          18.679     -11.504       0.199
 C          20.278      -3.971       0.087
 C          18.128       2.346      -0.331
 C          17.941     -12.739       0.054
 C          18.800      -3.961      -0.134
 C          16.692       2.358      -0.610
 C          16.474     -12.715      -0.078
 C          18.062      -5.209      -0.213
 C          15.950       1.109      -0.564
 C          15.740     -13.973       0.091
 C          16.600      -5.225      -0.395
 C          14.485       1.129      -0.586
 C          14.281     -13.957       0.080
 C          15.843      -6.446      -0.199
 C          13.762      -0.104      -0.384
 C          13.545     -15.219       0.256
 C          14.386      -6.437      -0.241
 C          12.291      -0.084      -0.431
 C          12.127     -15.149       0.405
 C          20.945      -5.243       0.135
 C          18.866       1.079      -0.196
 C          18.603     -14.002       0.396
 C          20.211      -6.494       0.052
 C          18.103      -0.159      -0.305
 C          17.861     -15.221       0.450
 C          18.744      -6.495      -0.097
 C          16.630      -0.141      -0.326
 C          16.439     -15.259       0.270
 C          17.999      -7.754      -0.039
 C          15.681     -16.504       0.388
 C          16.534      -7.733      -0.077
 C          14.277     -16.489       0.371
 C          20.932      -7.754       0.125
 C          20.196      -8.988       0.171
 C          18.724      -8.995       0.150
 C          20.843     -10.293       0.355
 C          20.135     -11.512       0.488
 C          11.491      -6.404      -0.262
 C          21.014       2.341      -0.114
 C          20.801     -12.802       0.773
 C          20.332       1.047      -0.186
 C          20.058     -13.992       0.716
 C          21.027      -0.213      -0.152
 C          10.008      -6.370      -0.181
 C          10.014      -3.842      -0.146
 C          10.086      -1.325      -0.341
 C           9.352      -2.572      -0.210
 C           9.319      -5.099      -0.128
 C           9.264      -7.613      -0.114
 C           9.374      -0.068      -0.363
