   142
 frame    879
 H          22.172       4.851      -0.067
 H          20.938       7.032      -0.099
 H          18.753       8.311      -0.074
 H          14.063       9.635      -0.055
 H          16.571       9.603      -0.037
 H           9.637       7.173      -0.196
 H           8.348       5.026      -0.217
 H          11.850       8.399      -0.126
 H           8.142     -10.125       0.251
 H           8.313       2.496      -0.186
 H           8.113     -12.652       0.384
 H           9.346     -14.828       0.525
 H          11.529     -16.106       0.629
 H          16.217     -17.428       0.736
 H          13.711     -17.396       0.717
 H          20.647     -14.970       0.637
 H          22.082      -2.727       0.249
 H          22.049      -5.248       0.355
 H          22.011      -7.770       0.426
 H          21.972     -10.296       0.489
 H          22.143       2.322       0.013
 H          21.936     -12.823       0.564
 H          18.431     -16.193       0.686
 H          22.114      -0.204       0.122
 H           8.238      -2.554      -0.062
 H           8.203      -5.077       0.031
 H           8.170      -7.600       0.134
 H           8.273      -0.032      -0.137
 C          18.903       3.595       0.257
 C          20.357       3.538       0.174
 C          21.056       4.850       0.047
 C          16.719       4.901       0.051
 C          18.186       4.851       0.005
 C          18.918       6.109      -0.199
 C          20.386       6.061      -0.125
 C          12.320       4.924      -0.075
 C          13.797       4.931       0.010
 C          14.537       6.155      -0.140
 C          16.012       6.147      -0.113
 C          16.794       7.403      -0.146
 C          18.215       7.361      -0.186
 C          11.633       6.207      -0.269
 C          12.371       7.436      -0.241
 C          13.787       7.435      -0.168
 C          14.615       8.694      -0.208
 C          16.007       8.672      -0.190
 C           9.459       4.996      -0.081
 C          10.163       6.186      -0.225
 C          13.631      -7.638       0.841
 C          12.146      -7.639       0.763
 C          11.366      -8.882       0.751
 C           9.927      -8.840       0.599
 C          11.471      -1.319       0.550
 C           9.227     -10.100       0.488
 C          15.803      -8.936       0.720
 C          14.327      -8.917       0.694
 C          15.902      -1.354       0.962
 C          13.576     -10.148       0.730
 C          14.415      -1.336       0.921
 C          12.103     -10.132       0.812
 C          13.631      -2.578       0.941
 C          11.569       3.675       0.154
 C          11.375     -11.370       0.692
 C          12.154      -2.576       0.830
 C          10.127       3.667       0.035
 C           9.918     -11.334       0.577
 C          11.417      -3.833       0.658
 C           9.408       2.449       0.033
 C           9.221     -12.655       0.516
 C          20.330      -1.427       0.444
 C          18.002     -10.214       0.918
 C          18.850      -1.408       0.700
 C          16.531     -10.186       0.795
 C          18.129      -2.644       0.957
 C          15.971       3.641       0.215
 C          15.769     -11.450       0.727
 C          16.652      -2.619       1.015
 C          14.505       3.664       0.176
 C          14.302     -11.432       0.695
 C          13.732       2.411       0.280
 C          13.558     -12.688       0.602
 C          15.884      -3.877       0.987
 C          14.356      -3.859       0.940
 C          12.255       2.438       0.348
 C          12.095     -12.648       0.526
 C          13.595      -5.119       1.021
 C          11.497       1.206       0.392
 C          11.366     -13.925       0.387
 C          12.114      -5.094       0.916
 C          10.062       1.179       0.225
 C           9.895     -13.866       0.421
 C          20.989      -2.695       0.340
 C          18.699     -11.466       0.798
 C          20.300      -3.958       0.500
 C          18.183       2.369       0.458
 C          17.955     -12.725       0.608
 C          18.842      -3.925       0.815
 C          16.707       2.375       0.347
 C          16.482     -12.726       0.640
 C          18.102      -5.177       1.048
 C          15.943       1.140       0.383
 C          15.743     -13.960       0.544
 C          16.618      -5.151       1.094
 C          14.453       1.156       0.346
 C          14.276     -13.939       0.520
 C          15.833      -6.395       1.143
 C          13.732      -0.101       0.553
 C          13.492     -15.204       0.537
 C          14.347      -6.377       1.109
 C          12.240      -0.070       0.495
 C          12.073     -15.172       0.459
 C          20.955      -5.249       0.447
 C          18.906       1.111       0.528
 C          18.656     -14.016       0.456
 C          20.257      -6.495       0.647
 C          18.118      -0.150       0.611
 C          17.915     -15.236       0.524
 C          18.789      -6.459       0.880
 C          16.631      -0.128       0.617
 C          16.497     -15.239       0.573
 C          18.021      -7.710       0.871
 C          15.676     -16.480       0.577
 C          16.532      -7.671       0.882
 C          14.277     -16.463       0.560
 C          20.932      -7.753       0.619
 C          20.204      -8.974       0.793
 C          18.757      -8.978       0.889
 C          20.880     -10.249       0.681
 C          20.157     -11.462       0.718
 C          11.403      -6.364       0.733
 C          21.043       2.303       0.204
 C          20.817     -12.796       0.666
 C          20.343       1.055       0.391
 C          20.128     -13.997       0.526
 C          21.041      -0.196       0.333
 C           9.947      -6.366       0.404
 C           9.978      -3.832       0.267
 C          10.012      -1.299       0.245
 C           9.325      -2.545       0.074
 C           9.296      -5.107       0.174
 C           9.244      -7.607       0.377
 C           9.341      -0.048       0.107
