   142
 frame     32
 H          22.172       4.851      -0.067
 H          20.938       7.032      -0.099
 H          18.753       8.311      -0.074
 H          14.063       9.635      -0.055
 H          16.571       9.603      -0.037
 H           9.637       7.173      -0.196
 H           8.348       5.026      -0.217
 H          11.850       8.399      -0.126
 H           8.142     -10.125       0.251
 H           8.313       2.496      -0.186
 H           8.113     -12.652       0.384
 H           9.346     -14.828       0.525
 H          11.529     -16.106       0.629
 H          16.217     -17.428       0.736
 H          13.711     -17.396       0.717
 H          20.647     -14.970       0.637
 H          22.082      -2.727       0.249
 H          22.049      -5.248       0.355
 H          22.011      -7.770       0.426
 H          21.972     -10.296       0.489
 H          22.143       2.322       0.013
 H          21.936     -12.823       0.564
 H          18.431     -16.193       0.686
 H          22.114      -0.204       0.122
 H           8.238      -2.554      -0.062
 H           8.203      -5.077       0.031
 H           8.170      -7.600       0.134
 H           8.273      -0.032      -0.137
 C          18.879       3.593      -0.029
 C          20.353       3.575      -0.029
 C          21.064       4.869      -0.061
 C          16.713       4.870      -0.059
 C          18.170       4.859      -0.057
 C          18.909       6.129      -0.071
 C          20.383       6.074      -0.078
 C          12.347       4.932      -0.120
 C          13.803       4.907      -0.091
 C          14.544       6.160      -0.084
 C          16.002       6.142      -0.071
 C          16.751       7.398      -0.067
 C          18.191       7.358      -0.071
 C          11.641       6.221      -0.140
 C          12.388       7.432      -0.119
 C          13.829       7.435      -0.090
 C          14.608       8.671      -0.066
 C          16.002       8.653      -0.056
 C           9.455       5.015      -0.188
 C          10.167       6.202      -0.177
 C          13.634      -7.636       0.404
 C          12.183      -7.627       0.232
 C          11.446      -8.870       0.267
 C           9.966      -8.860       0.247
 C          11.519      -1.330       0.068
 C           9.251     -10.133       0.288
 C          15.804      -8.914       0.365
 C          14.348      -8.896       0.335
 C          15.910      -1.400       0.261
 C          13.607     -10.148       0.369
 C          14.432      -1.387       0.211
 C          12.144     -10.138       0.361
 C          13.700      -2.610      -0.045
 C          11.607       3.684      -0.122
 C          11.405     -11.396       0.405
 C          12.243      -2.606       0.138
 C          10.133       3.703      -0.159
 C           9.931     -11.375       0.363
 C          11.472      -3.851       0.244
 C           9.423       2.475      -0.156
 C           9.220     -12.669       0.410
 C          20.298      -1.454       0.149
 C          17.972     -10.211       0.463
 C          18.822      -1.430       0.194
 C          16.511     -10.186       0.418
 C          18.069      -2.683       0.259
 C          15.972       3.609      -0.054
 C          15.771     -11.431       0.480
 C          16.596      -2.667       0.042
 C          14.513       3.627      -0.075
 C          14.312     -11.413       0.458
 C          13.776       2.380      -0.088
 C          13.569     -12.671       0.504
 C          15.968      -3.923      -0.495
 C          14.342      -3.914      -0.549
 C          12.314       2.403      -0.092
 C          12.113     -12.657       0.474
 C          13.672      -5.147       0.059
 C          11.583       1.152      -0.103
 C          11.374     -13.926       0.519
 C          12.223      -5.109       0.235
 C          10.105       1.182      -0.118
 C           9.901     -13.871       0.487
 C          20.972      -2.717       0.203
 C          18.679     -11.486       0.515
 C          20.267      -3.967       0.287
 C          18.138       2.332      -0.005
 C          17.936     -12.730       0.549
 C          18.798      -3.942       0.383
 C          16.675       2.343      -0.043
 C          16.481     -12.707       0.541
 C          18.013      -5.175       0.354
 C          15.937       1.102      -0.023
 C          15.737     -13.958       0.582
 C          16.567      -5.183       0.110
 C          14.485       1.122      -0.041
 C          14.280     -13.940       0.566
 C          15.835      -6.376       0.451
 C          13.727      -0.097       0.110
 C          13.531     -15.193       0.613
 C          14.373      -6.362       0.426
 C          12.281      -0.104      -0.050
 C          12.091     -15.153       0.591
 C          20.939      -5.233       0.308
 C          18.839       1.062       0.020
 C          18.643     -14.017       0.599
 C          20.226      -6.479       0.359
 C          18.107      -0.182       0.047
 C          17.894     -15.225       0.645
 C          18.747      -6.451       0.420
 C          16.656      -0.140       0.145
 C          16.453     -15.230       0.639
 C          18.004      -7.698       0.354
 C          15.674     -16.465       0.689
 C          16.544      -7.671       0.465
 C          14.279     -16.447       0.678
 C          20.905      -7.754       0.398
 C          20.185      -8.988       0.444
 C          18.708      -8.963       0.407
 C          20.864     -10.279       0.489
 C          20.151     -11.503       0.519
 C          11.462      -6.368       0.260
 C          21.032       2.330       0.013
 C          20.829     -12.813       0.562
 C          20.317       1.057       0.054
 C          20.117     -13.998       0.602
 C          21.005      -0.198       0.098
 C           9.989      -6.353       0.131
 C          10.016      -3.839       0.055
 C          10.051      -1.323      -0.059
 C           9.351      -2.573      -0.059
 C           9.316      -5.090       0.035
 C           9.278      -7.610       0.153
 C           9.380      -0.052      -0.123
