   142
 frame    467
 H          22.172       4.851      -0.067
 H          20.938       7.032      -0.099
 H          18.753       8.311      -0.074
 H          14.063       9.635      -0.055
 H          16.571       9.603      -0.037
 H           9.637       7.173      -0.196
 H           8.348       5.026      -0.217
 H          11.850       8.399      -0.126
 H           8.142     -10.125       0.251
 H           8.313       2.496      -0.186
 H           8.113     -12.652       0.384
 H           9.346     -14.828       0.525
 H          11.529     -16.106       0.629
 H          16.217     -17.428       0.736
 H          13.711     -17.396       0.717
 H          20.647     -14.970       0.637
 H          22.082      -2.727       0.249
 H          22.049      -5.248       0.355
 H          22.011      -7.770       0.426
 H          21.972     -10.296       0.489
 H          22.143       2.322       0.013
 H          21.936     -12.823       0.564
 H          18.431     -16.193       0.686
 H          22.114      -0.204       0.122
 H           8.238      -2.554      -0.062
 H           8.203      -5.077       0.031
 H           8.170      -7.600       0.134
 H           8.273      -0.032      -0.137
 C          18.893       3.623      -0.501
 C          20.398       3.586      -0.411
 C          21.104       4.879      -0.249
 C          16.711       4.880      -0.491
 C          18.183       4.892      -0.433
 C          18.937       6.132      -0.157
 C          20.395       6.066      -0.096
 C          12.343       4.976      -0.500
 C          13.820       4.921      -0.528
 C          14.543       6.148      -0.353
 C          16.002       6.126      -0.326
 C          16.747       7.372      -0.105
 C          18.188       7.351      -0.048
 C          11.622       6.233      -0.222
 C          12.396       7.430      -0.096
 C          13.831       7.414      -0.128
 C          14.610       8.643      -0.091
 C          16.006       8.625      -0.068
 C           9.413       5.032      -0.363
 C          10.148       6.193      -0.184
 C          13.653      -7.669      -0.265
 C          12.189      -7.655      -0.197
 C          11.442      -8.894      -0.143
 C           9.982      -8.885       0.049
 C          11.573      -1.335      -0.191
 C           9.249     -10.143       0.075
 C          15.823      -8.968      -0.190
 C          14.350      -8.955      -0.216
 C          15.908      -1.402      -0.213
 C          13.579     -10.206      -0.172
 C          14.445      -1.380      -0.238
 C          12.124     -10.175      -0.119
 C          13.707      -2.629      -0.136
 C          11.607       3.724      -0.599
 C          11.408     -11.457      -0.094
 C          12.251      -2.603       0.046
 C          10.103       3.717      -0.538
 C           9.903     -11.411      -0.023
 C          11.507      -3.856       0.154
 C           9.419       2.470      -0.358
 C           9.189     -12.695       0.236
 C          20.268      -1.442       0.166
 C          18.008     -10.243      -0.028
 C          18.777      -1.429      -0.039
 C          16.558     -10.243      -0.142
 C          18.061      -2.674       0.158
 C          15.982       3.615      -0.560
 C          15.787     -11.467      -0.110
 C          16.610      -2.672      -0.070
 C          14.515       3.638      -0.590
 C          14.311     -11.445      -0.131
 C          13.747       2.411      -0.572
 C          13.589     -12.721      -0.001
 C          15.878      -3.916      -0.054
 C          14.410      -3.895      -0.084
 C          12.294       2.426      -0.522
 C          12.116     -12.732       0.055
 C          13.677      -5.144      -0.073
 C          11.568       1.161      -0.472
 C          11.360     -13.956       0.427
 C          12.220      -5.135       0.117
 C          10.105       1.197      -0.303
 C           9.895     -13.870       0.474
 C          20.962      -2.709       0.353
 C          18.688     -11.543      -0.002
 C          20.223      -3.958       0.413
 C          18.169       2.349      -0.436
 C          17.946     -12.800       0.128
 C          18.764      -3.950       0.317
 C          16.716       2.372      -0.519
 C          16.475     -12.752       0.041
 C          18.018      -5.200       0.240
 C          15.952       1.119      -0.509
 C          15.740     -13.970       0.279
 C          16.567      -5.173      -0.003
 C          14.483       1.137      -0.526
 C          14.283     -13.953       0.264
 C          15.843      -6.428      -0.062
 C          13.746      -0.129      -0.498
 C          13.532     -15.184       0.541
 C          14.385      -6.413      -0.088
 C          12.288      -0.097      -0.438
 C          12.095     -15.164       0.606
 C          20.921      -5.230       0.450
 C          18.861       1.072      -0.332
 C          18.665     -14.048       0.493
 C          20.199      -6.487       0.347
 C          18.104      -0.170      -0.329
 C          17.894     -15.233       0.651
 C          18.717      -6.483       0.113
 C          16.645      -0.171      -0.445
 C          16.452     -15.215       0.573
 C          18.008      -7.730      -0.088
 C          15.681     -16.438       0.655
 C          16.546      -7.696      -0.209
 C          14.280     -16.421       0.643
 C          20.896      -7.780       0.381
 C          20.173      -9.008       0.231
 C          18.716      -8.981       0.007
 C          20.872     -10.288       0.263
 C          20.192     -11.533       0.126
 C          11.498      -6.391      -0.030
 C          21.040       2.325      -0.193
 C          20.863     -12.838       0.396
 C          20.319       1.069      -0.120
 C          20.122     -13.997       0.586
 C          21.001      -0.179       0.112
 C          10.012      -6.363       0.140
 C          10.047      -3.833       0.195
 C          10.080      -1.318      -0.018
 C           9.349      -2.563       0.109
 C           9.320      -5.086       0.191
 C           9.285      -7.635       0.150
 C           9.381      -0.031      -0.101
