   142
 frame    660
 H          22.172       4.851      -0.067
 H          20.938       7.032      -0.099
 H          18.753       8.311      -0.074
 H          14.063       9.635      -0.055
 H          16.571       9.603      -0.037
 H           9.637       7.173      -0.196
 H           8.348       5.026      -0.217
 H          11.850       8.399      -0.126
 H           8.142     -10.125       0.251
 H           8.313       2.496      -0.186
 H           8.113     -12.652       0.384
 H           9.346     -14.828       0.525
 H          11.529     -16.106       0.629
 H          16.217     -17.428       0.736
 H          13.711     -17.396       0.717
 H          20.647     -14.970       0.637
 H          22.082      -2.727       0.249
 H          22.049      -5.248       0.355
 H          22.011      -7.770       0.426
 H          21.972     -10.296       0.489
 H          22.143       2.322       0.013
 H          21.936     -12.823       0.564
 H          18.431     -16.193       0.686
 H          22.114      -0.204       0.122
 H           8.238      -2.554      -0.062
 H           8.203      -5.077       0.031
 H           8.170      -7.600       0.134
 H           8.273      -0.032      -0.137
 C          18.841       3.604       0.124
 C          20.318       3.594       0.058
 C          21.052       4.882       0.022
 C          16.673       4.876       0.327
 C          18.110       4.849       0.171
 C          18.894       6.126       0.106
 C          20.379       6.089       0.053
 C          12.396       4.923       0.125
 C          13.840       4.916       0.301
 C          14.547       6.183       0.401
 C          15.997       6.168       0.413
 C          16.761       7.406       0.264
 C          18.213       7.373       0.153
 C          11.646       6.215       0.058
 C          12.369       7.446       0.117
 C          13.811       7.446       0.229
 C          14.606       8.661       0.031
 C          16.006       8.643       0.044
 C           9.464       5.027      -0.112
 C          10.160       6.218      -0.047
 C          13.662      -7.707       0.215
 C          12.184      -7.682       0.281
 C          11.411      -8.888       0.510
 C           9.957      -8.889       0.411
 C          11.577      -1.312      -0.066
 C           9.254     -10.171       0.335
 C          15.791      -8.951       0.589
 C          14.356      -8.934       0.563
 C          15.903      -1.380      -0.057
 C          13.574     -10.139       0.807
 C          14.458      -1.367      -0.086
 C          12.110     -10.150       0.690
 C          13.728      -2.634      -0.017
 C          11.633       3.700       0.030
 C          11.435     -11.399       0.536
 C          12.283      -2.600      -0.064
 C          10.163       3.722      -0.083
 C           9.963     -11.384       0.440
 C          11.545      -3.854      -0.014
 C           9.433       2.520      -0.098
 C           9.227     -12.676       0.500
 C          20.275      -1.442       0.162
 C          17.991     -10.229       0.794
 C          18.780      -1.400       0.075
 C          16.530     -10.175       0.868
 C          18.049      -2.671       0.052
 C          15.969       3.614       0.368
 C          15.764     -11.400       0.895
 C          16.600      -2.667       0.043
 C          14.506       3.623       0.361
 C          14.301     -11.381       0.875
 C          13.734       2.405       0.383
 C          13.594     -12.654       0.890
 C          15.873      -3.922       0.131
 C          14.420      -3.905       0.103
 C          12.275       2.440       0.257
 C          12.166     -12.640       0.700
 C          13.695      -5.155       0.094
 C          11.543       1.185       0.152
 C          11.389     -13.905       0.682
 C          12.243      -5.140       0.037
 C          10.095       1.226       0.043
 C           9.897     -13.876       0.607
 C          20.974      -2.704       0.256
 C          18.636     -11.486       0.648
 C          20.233      -3.964       0.242
 C          18.168       2.370       0.332
 C          17.880     -12.710       0.766
 C          18.750      -3.947       0.147
 C          16.703       2.369       0.416
 C          16.449     -12.688       0.922
 C          18.017      -5.213       0.159
 C          15.940       1.136       0.228
 C          15.729     -13.958       1.040
 C          16.565      -5.193       0.157
 C          14.488       1.150       0.213
 C          14.276     -13.933       1.022
 C          15.837      -6.465       0.123
 C          13.763      -0.070      -0.063
 C          13.511     -15.184       0.928
 C          14.379      -6.447       0.105
 C          12.275      -0.054       0.003
 C          12.069     -15.152       0.807
 C          20.934      -5.241       0.357
 C          18.875       1.096       0.262
 C          18.627     -13.997       0.761
 C          20.205      -6.489       0.365
 C          18.113      -0.129       0.087
 C          17.916     -15.225       0.864
 C          18.713      -6.498       0.279
 C          16.628      -0.120      -0.016
 C          16.473     -15.228       0.944
 C          18.006      -7.759       0.395
 C          15.679     -16.449       0.771
 C          16.523      -7.741       0.279
 C          14.273     -16.429       0.755
 C          20.881      -7.765       0.479
 C          20.191      -9.017       0.611
 C          18.734      -8.981       0.662
 C          20.854     -10.317       0.546
 C          20.104     -11.510       0.596
 C          11.508      -6.407       0.137
 C          21.021       2.372       0.065
 C          20.818     -12.819       0.642
 C          20.321       1.102       0.218
 C          20.124     -14.004       0.727
 C          20.985      -0.165       0.176
 C          10.010      -6.355       0.127
 C          10.060      -3.842       0.009
 C          10.080      -1.317      -0.043
 C           9.348      -2.564      -0.004
 C           9.317      -5.098       0.085
 C           9.301      -7.622       0.226
 C           9.399      -0.022      -0.054
