   142
 frame    737
 H          22.172       4.851      -0.067
 H          20.938       7.032      -0.099
 H          18.753       8.311      -0.074
 H          14.063       9.635      -0.055
 H          16.571       9.603      -0.037
 H           9.637       7.173      -0.196
 H           8.348       5.026      -0.217
 H          11.850       8.399      -0.126
 H           8.142     -10.125       0.251
 H           8.313       2.496      -0.186
 H           8.113     -12.652       0.384
 H           9.346     -14.828       0.525
 H          11.529     -16.106       0.629
 H          16.217     -17.428       0.736
 H          13.711     -17.396       0.717
 H          20.647     -14.970       0.637
 H          22.082      -2.727       0.249
 H          22.049      -5.248       0.355
 H          22.011      -7.770       0.426
 H          21.972     -10.296       0.489
 H          22.143       2.322       0.013
 H          21.936     -12.823       0.564
 H          18.431     -16.193       0.686
 H          22.114      -0.204       0.122
 H           8.238      -2.554      -0.062
 H           8.203      -5.077       0.031
 H           8.170      -7.600       0.134
 H           8.273      -0.032      -0.137
 C          18.888       3.619       0.337
 C          20.357       3.583       0.199
 C          21.074       4.888       0.135
 C          16.771       4.889       0.413
 C          18.233       4.905       0.338
 C          18.937       6.192       0.358
 C          20.422       6.105       0.229
 C          12.279       4.980       0.269
 C          13.741       4.926       0.365
 C          14.527       6.169       0.520
 C          16.004       6.153       0.523
 C          16.735       7.430       0.330
 C          18.200       7.394       0.254
 C          11.608       6.274       0.298
 C          12.368       7.468       0.211
 C          13.831       7.462       0.297
 C          14.601       8.667      -0.012
 C          16.005       8.654       0.003
 C           9.446       5.023       0.001
 C          10.129       6.225       0.129
 C          13.611      -7.648       0.389
 C          12.138      -7.608       0.349
 C          11.410      -8.859       0.586
 C           9.949      -8.849       0.454
 C          11.497      -1.366       0.063
 C           9.229     -10.153       0.429
 C          15.806      -8.915       0.573
 C          14.337      -8.897       0.541
 C          15.899      -1.393       0.275
 C          13.592     -10.134       0.744
 C          14.444      -1.376       0.233
 C          12.117     -10.117       0.815
 C          13.703      -2.622       0.372
 C          11.582       3.706       0.257
 C          11.380     -11.383       0.768
 C          12.263      -2.603       0.191
 C          10.128       3.711       0.071
 C           9.926     -11.368       0.598
 C          11.545      -3.850       0.293
 C           9.405       2.504      -0.010
 C           9.215     -12.675       0.600
 C          20.319      -1.462       0.260
 C          17.975     -10.197       0.930
 C          18.844      -1.454       0.215
 C          16.505     -10.173       0.813
 C          18.054      -2.669       0.317
 C          15.981       3.642       0.405
 C          15.779     -11.432       0.933
 C          16.608      -2.657       0.447
 C          14.483       3.653       0.392
 C          14.284     -11.416       0.909
 C          13.755       2.386       0.297
 C          13.515     -12.660       0.942
 C          15.887      -3.888       0.629
 C          14.388      -3.872       0.594
 C          12.289       2.437       0.369
 C          12.051     -12.673       0.851
 C          13.674      -5.121       0.469
 C          11.543       1.170       0.210
 C          11.351     -13.957       0.953
 C          12.235      -5.125       0.271
 C          10.083       1.195       0.087
 C           9.855     -13.888       0.792
 C          20.974      -2.733       0.328
 C          18.683     -11.469       0.890
 C          20.228      -3.964       0.370
 C          18.149       2.360       0.464
 C          17.992     -12.749       0.938
 C          18.730      -3.937       0.457
 C          16.681       2.351       0.357
 C          16.524     -12.696       0.989
 C          18.017      -5.194       0.421
 C          15.941       1.100       0.194
 C          15.743     -13.932       1.175
 C          16.575      -5.162       0.552
 C          14.463       1.117       0.163
 C          14.259     -13.916       1.152
 C          15.835      -6.416       0.481
 C          13.715      -0.116       0.094
 C          13.532     -15.208       0.985
 C          14.373      -6.393       0.446
 C          12.239      -0.115       0.056
 C          12.076     -15.178       0.921
 C          20.944      -5.206       0.420
 C          18.871       1.085       0.325
 C          18.660     -14.052       1.039
 C          20.250      -6.454       0.461
 C          18.141      -0.185       0.175
 C          17.898     -15.258       0.979
 C          18.777      -6.439       0.422
 C          16.663      -0.155       0.160
 C          16.435     -15.242       1.023
 C          18.041      -7.678       0.478
 C          15.670     -16.461       0.738
 C          16.562      -7.679       0.473
 C          14.271     -16.444       0.729
 C          20.922      -7.737       0.583
 C          20.190      -8.974       0.660
 C          18.730      -8.948       0.741
 C          20.881     -10.292       0.628
 C          20.153     -11.493       0.741
 C          11.427      -6.349       0.250
 C          21.050       2.361       0.141
 C          20.835     -12.825       0.759
 C          20.328       1.069       0.236
 C          20.157     -14.019       0.913
 C          21.018      -0.190       0.283
 C           9.959      -6.337       0.215
 C          10.060      -3.833       0.130
 C          10.027      -1.337       0.050
 C           9.342      -2.592       0.067
 C           9.312      -5.062       0.137
 C           9.251      -7.597       0.337
 C           9.357      -0.048       0.069
