   142
 frame    741
 H          22.172       4.851      -0.067
 H          20.938       7.032      -0.099
 H          18.753       8.311      -0.074
 H          14.063       9.635      -0.055
 H          16.571       9.603      -0.037
 H           9.637       7.173      -0.196
 H           8.348       5.026      -0.217
 H          11.850       8.399      -0.126
 H           8.142     -10.125       0.251
 H           8.313       2.496      -0.186
 H           8.113     -12.652       0.384
 H           9.346     -14.828       0.525
 H          11.529     -16.106       0.629
 H          16.217     -17.428       0.736
 H          13.711     -17.396       0.717
 H          20.647     -14.970       0.637
 H          22.082      -2.727       0.249
 H          22.049      -5.248       0.355
 H          22.011      -7.770       0.426
 H          21.972     -10.296       0.489
 H          22.143       2.322       0.013
 H          21.936     -12.823       0.564
 H          18.431     -16.193       0.686
 H          22.114      -0.204       0.122
 H           8.238      -2.554      -0.062
 H           8.203      -5.077       0.031
 H           8.170      -7.600       0.134
 H           8.273      -0.032      -0.137
 C          18.904       3.618       0.321
 C          20.355       3.586       0.193
 C          21.077       4.888       0.111
 C          16.778       4.892       0.413
 C          18.233       4.910       0.306
 C          18.942       6.190       0.316
 C          20.430       6.112       0.210
 C          12.280       4.981       0.235
 C          13.728       4.927       0.363
 C          14.521       6.175       0.518
 C          16.010       6.159       0.527
 C          16.730       7.445       0.305
 C          18.189       7.389       0.235
 C          11.604       6.278       0.256
 C          12.373       7.458       0.191
 C          13.841       7.477       0.276
 C          14.603       8.682      -0.018
 C          16.005       8.668      -0.007
 C           9.442       5.030      -0.025
 C          10.118       6.230       0.113
 C          13.623      -7.632       0.371
 C          12.146      -7.592       0.346
 C          11.403      -8.843       0.600
 C           9.937      -8.858       0.469
 C          11.494      -1.368       0.039
 C           9.252     -10.133       0.413
 C          15.806      -8.917       0.581
 C          14.337      -8.899       0.551
 C          15.902      -1.397       0.285
 C          13.602     -10.155       0.777
 C          14.439      -1.373       0.249
 C          12.109     -10.108       0.852
 C          13.689      -2.618       0.387
 C          11.569       3.711       0.244
 C          11.371     -11.381       0.752
 C          12.243      -2.626       0.225
 C          10.123       3.710       0.063
 C           9.917     -11.365       0.592
 C          11.516      -3.848       0.300
 C           9.429       2.492      -0.034
 C           9.205     -12.681       0.570
 C          20.331      -1.467       0.276
 C          17.982     -10.188       0.964
 C          18.847      -1.460       0.202
 C          16.493     -10.188       0.847
 C          18.072      -2.691       0.352
 C          15.974       3.653       0.429
 C          15.774     -11.442       0.961
 C          16.621      -2.653       0.461
 C          14.489       3.665       0.415
 C          14.290     -11.423       0.930
 C          13.773       2.404       0.328
 C          13.501     -12.668       0.942
 C          15.895      -3.887       0.677
 C          14.380      -3.870       0.640
 C          12.279       2.428       0.402
 C          12.051     -12.679       0.813
 C          13.652      -5.120       0.493
 C          11.541       1.161       0.228
 C          11.342     -13.958       0.912
 C          12.213      -5.102       0.298
 C          10.075       1.202       0.103
 C           9.847     -13.892       0.778
 C          20.983      -2.741       0.316
 C          18.694     -11.466       0.874
 C          20.253      -3.959       0.354
 C          18.158       2.356       0.495
 C          17.990     -12.749       0.900
 C          18.756      -3.939       0.468
 C          16.668       2.369       0.389
 C          16.539     -12.703       0.990
 C          18.037      -5.173       0.447
 C          15.940       1.108       0.205
 C          15.749     -13.942       1.182
 C          16.592      -5.164       0.580
 C          14.471       1.124       0.178
 C          14.253     -13.925       1.155
 C          15.833      -6.419       0.490
 C          13.724      -0.134       0.076
 C          13.548     -15.217       0.970
 C          14.374      -6.396       0.462
 C          12.256      -0.137       0.055
 C          12.086     -15.170       0.899
 C          20.946      -5.196       0.405
 C          18.867       1.073       0.346
 C          18.666     -14.054       0.995
 C          20.255      -6.451       0.479
 C          18.128      -0.194       0.173
 C          17.887     -15.248       0.960
 C          18.784      -6.432       0.402
 C          16.651      -0.171       0.140
 C          16.424     -15.255       1.003
 C          18.032      -7.664       0.479
 C          15.667     -16.478       0.734
 C          16.550      -7.663       0.452
 C          14.274     -16.455       0.719
 C          20.922      -7.734       0.609
 C          20.202      -8.978       0.673
 C          18.737      -8.938       0.762
 C          20.861     -10.275       0.608
 C          20.161     -11.496       0.736
 C          11.427      -6.346       0.235
 C          21.027       2.340       0.121
 C          20.842     -12.827       0.726
 C          20.333       1.076       0.254
 C          20.170     -14.025       0.905
 C          21.020      -0.188       0.309
 C           9.953      -6.328       0.233
 C          10.039      -3.835       0.109
 C          10.016      -1.343       0.072
 C           9.337      -2.600       0.053
 C           9.306      -5.047       0.123
 C           9.250      -7.594       0.360
 C           9.356      -0.046       0.101
