   142
 frame    355
 H          22.172       4.851      -0.067
 H          20.938       7.032      -0.099
 H          18.753       8.311      -0.074
 H          14.063       9.635      -0.055
 H          16.571       9.603      -0.037
 H           9.637       7.173      -0.196
 H           8.348       5.026      -0.217
 H          11.850       8.399      -0.126
 H           8.142     -10.125       0.251
 H           8.313       2.496      -0.186
 H           8.113     -12.652       0.384
 H           9.346     -14.828       0.525
 H          11.529     -16.106       0.629
 H          16.217     -17.428       0.736
 H          13.711     -17.396       0.717
 H          20.647     -14.970       0.637
 H          22.082      -2.727       0.249
 H          22.049      -5.248       0.355
 H          22.011      -7.770       0.426
 H          21.972     -10.296       0.489
 H          22.143       2.322       0.013
 H          21.936     -12.823       0.564
 H          18.431     -16.193       0.686
 H          22.114      -0.204       0.122
 H           8.238      -2.554      -0.062
 H           8.203      -5.077       0.031
 H           8.170      -7.600       0.134
 H           8.273      -0.032      -0.137
 C          18.891       3.635      -0.271
 C          20.368       3.566      -0.183
 C          21.096       4.865      -0.241
 C          16.746       4.958      -0.656
 C          18.161       4.909      -0.365
 C          18.924       6.147      -0.339
 C          20.415       6.066      -0.281
 C          12.368       4.983      -0.445
 C          13.793       4.995      -0.691
 C          14.539       6.235      -0.845
 C          16.029       6.215      -0.849
 C          16.757       7.452      -0.538
 C          18.213       7.380      -0.334
 C          11.630       6.241      -0.405
 C          12.369       7.459      -0.397
 C          13.830       7.487      -0.570
 C          14.612       8.708      -0.261
 C          16.002       8.689      -0.247
 C           9.435       5.008      -0.353
 C          10.145       6.199      -0.378
 C          13.632      -7.683      -0.273
 C          12.164      -7.672      -0.268
 C          11.428      -8.925      -0.146
 C           9.949      -8.874       0.091
 C          11.517      -1.337      -0.442
 C           9.239     -10.144       0.223
 C          15.814      -8.969      -0.164
 C          14.355      -8.956      -0.204
 C          15.923      -1.418      -0.440
 C          13.608     -10.225      -0.213
 C          14.434      -1.393      -0.469
 C          12.124     -10.211      -0.147
 C          13.668      -2.650      -0.209
 C          11.607       3.728      -0.363
 C          11.398     -11.444       0.100
 C          12.196      -2.621      -0.431
 C          10.120       3.693      -0.308
 C           9.915     -11.377       0.156
 C          11.441      -3.874      -0.513
 C           9.411       2.483      -0.193
 C           9.197     -12.677       0.213
 C          20.307      -1.464      -0.066
 C          18.004     -10.283      -0.033
 C          18.852      -1.428      -0.291
 C          16.527     -10.265      -0.151
 C          18.144      -2.692      -0.306
 C          15.987       3.682      -0.686
 C          15.795     -11.547      -0.235
 C          16.652      -2.685      -0.146
 C          14.513       3.700      -0.722
 C          14.314     -11.529      -0.257
 C          13.776       2.414      -0.592
 C          13.553     -12.794      -0.149
 C          15.879      -3.903       0.074
 C          14.396      -3.887       0.038
 C          12.295       2.451      -0.535
 C          12.124     -12.722       0.102
 C          13.643      -5.132      -0.135
 C          11.571       1.177      -0.472
 C          11.375     -13.966       0.201
 C          12.161      -5.142      -0.369
 C          10.092       1.183      -0.255
 C           9.886     -13.877       0.275
 C          21.009      -2.713      -0.024
 C          18.691     -11.538       0.222
 C          20.308      -3.978      -0.142
 C          18.167       2.376      -0.440
 C          17.937     -12.796       0.179
 C          18.866      -3.963      -0.338
 C          16.691       2.387      -0.538
 C          16.510     -12.836      -0.109
 C          18.108      -5.213      -0.215
 C          15.943       1.121      -0.497
 C          15.769     -14.087      -0.246
 C          16.618      -5.166      -0.059
 C          14.488       1.138      -0.529
 C          14.263     -14.067      -0.262
 C          15.859      -6.434      -0.277
 C          13.733      -0.120      -0.518
 C          13.522     -15.278       0.116
 C          14.366      -6.421      -0.313
 C          12.274      -0.099      -0.510
 C          12.080     -15.209       0.299
 C          20.970      -5.250       0.073
 C          18.858       1.085      -0.351
 C          18.651     -14.060       0.291
 C          20.241      -6.488       0.122
 C          18.129      -0.176      -0.394
 C          17.912     -15.278       0.358
 C          18.783      -6.505      -0.116
 C          16.661      -0.156      -0.459
 C          16.470     -15.315       0.145
 C          18.033      -7.741      -0.145
 C          15.672     -16.509       0.483
 C          16.566      -7.722      -0.216
 C          14.283     -16.492       0.471
 C          20.914      -7.740       0.309
 C          20.196      -9.003       0.299
 C          18.742      -9.023      -0.014
 C          20.879     -10.285       0.425
 C          20.170     -11.505       0.319
 C          11.450      -6.412      -0.281
 C          21.049       2.337      -0.015
 C          20.868     -12.829       0.362
 C          20.336       1.057      -0.070
 C          20.143     -14.010       0.371
 C          21.019      -0.218       0.019
 C           9.986      -6.359      -0.115
 C           9.982      -3.849      -0.378
 C          10.048      -1.340      -0.286
 C           9.322      -2.566      -0.288
 C           9.290      -5.105      -0.196
 C           9.275      -7.593       0.058
 C           9.374      -0.075      -0.203
