   142
 frame     55
 H          22.172       4.851      -0.067
 H          20.938       7.032      -0.099
 H          18.753       8.311      -0.074
 H          14.063       9.635      -0.055
 H          16.571       9.603      -0.037
 H           9.637       7.173      -0.196
 H           8.348       5.026      -0.217
 H          11.850       8.399      -0.126
 H           8.142     -10.125       0.251
 H           8.313       2.496      -0.186
 H           8.113     -12.652       0.384
 H           9.346     -14.828       0.525
 H          11.529     -16.106       0.629
 H          16.217     -17.428       0.736
 H          13.711     -17.396       0.717
 H          20.647     -14.970       0.637
 H          22.082      -2.727       0.249
 H          22.049      -5.248       0.355
 H          22.011      -7.770       0.426
 H          21.972     -10.296       0.489
 H          22.143       2.322       0.013
 H          21.936     -12.823       0.564
 H          18.431     -16.193       0.686
 H          22.114      -0.204       0.122
 H           8.238      -2.554      -0.062
 H           8.203      -5.077       0.031
 H           8.170      -7.600       0.134
 H           8.273      -0.032      -0.137
 C          18.888       3.599      -0.036
 C          20.354       3.568      -0.017
 C          21.061       4.856      -0.056
 C          16.718       4.876      -0.067
 C          18.169       4.852      -0.045
 C          18.905       6.113      -0.065
 C          20.380       6.064      -0.079
 C          12.347       4.927      -0.111
 C          13.799       4.916      -0.101
 C          14.545       6.157      -0.081
 C          16.002       6.138      -0.066
 C          16.750       7.389      -0.065
 C          18.190       7.346      -0.072
 C          11.644       6.205      -0.134
 C          12.387       7.420      -0.120
 C          13.829       7.426      -0.089
 C          14.607       8.665      -0.067
 C          16.003       8.647      -0.057
 C           9.457       5.002      -0.183
 C          10.168       6.191      -0.176
 C          13.641      -7.580       0.390
 C          12.166      -7.609       0.411
 C          11.436      -8.869       0.277
 C           9.955      -8.867       0.201
 C          11.541      -1.356       0.056
 C           9.242     -10.139       0.275
 C          15.799      -8.889       0.542
 C          14.340      -8.868       0.516
 C          15.923      -1.446      -0.205
 C          13.611     -10.135       0.382
 C          14.432      -1.438      -0.228
 C          12.143     -10.136       0.307
 C          13.692      -2.621      -0.451
 C          11.597       3.696      -0.134
 C          11.406     -11.391       0.392
 C          12.264      -2.632      -0.089
 C          10.131       3.700      -0.150
 C           9.935     -11.369       0.374
 C          11.475      -3.852       0.015
 C           9.403       2.489      -0.169
 C           9.223     -12.659       0.415
 C          20.281      -1.454       0.232
 C          17.974     -10.203       0.409
 C          18.802      -1.442       0.205
 C          16.507     -10.171       0.435
 C          18.058      -2.698       0.046
 C          15.974       3.625      -0.096
 C          15.773     -11.427       0.436
 C          16.636      -2.665      -0.383
 C          14.514       3.643      -0.112
 C          14.316     -11.411       0.413
 C          13.775       2.382      -0.070
 C          13.570     -12.665       0.492
 C          15.876      -3.935      -0.463
 C          14.439      -3.922      -0.488
 C          12.303       2.421      -0.143
 C          12.116     -12.647       0.483
 C          13.654      -5.170      -0.357
 C          11.563       1.170      -0.091
 C          11.378     -13.914       0.524
 C          12.224      -5.095       0.006
 C          10.078       1.199      -0.163
 C           9.904     -13.864       0.486
 C          20.957      -2.717       0.286
 C          18.678     -11.479       0.502
 C          20.246      -3.957       0.388
 C          18.151       2.344      -0.059
 C          17.934     -12.721       0.560
 C          18.800      -3.942       0.182
 C          16.675       2.342      -0.039
 C          16.482     -12.700       0.531
 C          18.033      -5.172       0.122
 C          15.933       1.084       0.151
 C          15.738     -13.948       0.587
 C          16.603      -5.207      -0.287
 C          14.474       1.101       0.128
 C          14.280     -13.930       0.571
 C          15.855      -6.389      -0.027
 C          13.740      -0.170       0.095
 C          13.532     -15.185       0.615
 C          14.369      -6.370      -0.057
 C          12.271      -0.100       0.119
 C          12.092     -15.145       0.589
 C          20.920      -5.216       0.395
 C          18.852       1.073       0.016
 C          18.640     -14.006       0.605
 C          20.216      -6.470       0.451
 C          18.098      -0.176       0.213
 C          17.894     -15.219       0.644
 C          18.747      -6.440       0.391
 C          16.627      -0.207       0.168
 C          16.452     -15.221       0.642
 C          18.000      -7.684       0.528
 C          15.674     -16.460       0.688
 C          16.529      -7.621       0.442
 C          14.279     -16.442       0.677
 C          20.898      -7.743       0.424
 C          20.189      -8.985       0.398
 C          18.708      -8.954       0.420
 C          20.869     -10.277       0.476
 C          20.149     -11.495       0.530
 C          11.468      -6.342       0.244
 C          21.049       2.335       0.006
 C          20.826     -12.806       0.568
 C          20.340       1.063       0.010
 C          20.115     -13.993       0.602
 C          21.000      -0.208       0.111
 C           9.995      -6.342       0.225
 C          10.025      -3.828       0.178
 C          10.070      -1.326       0.042
 C           9.361      -2.570       0.045
 C           9.327      -5.075       0.139
 C           9.282      -7.603       0.177
 C           9.386      -0.058      -0.099
