   142
 frame    567
 H          22.172       4.851      -0.067
 H          20.938       7.032      -0.099
 H          18.753       8.311      -0.074
 H          14.063       9.635      -0.055
 H          16.571       9.603      -0.037
 H           9.637       7.173      -0.196
 H           8.348       5.026      -0.217
 H          11.850       8.399      -0.126
 H           8.142     -10.125       0.251
 H           8.313       2.496      -0.186
 H           8.113     -12.652       0.384
 H           9.346     -14.828       0.525
 H          11.529     -16.106       0.629
 H          16.217     -17.428       0.736
 H          13.711     -17.396       0.717
 H          20.647     -14.970       0.637
 H          22.082      -2.727       0.249
 H          22.049      -5.248       0.355
 H          22.011      -7.770       0.426
 H          21.972     -10.296       0.489
 H          22.143       2.322       0.013
 H          21.936     -12.823       0.564
 H          18.431     -16.193       0.686
 H          22.114      -0.204       0.122
 H           8.238      -2.554      -0.062
 H           8.203      -5.077       0.031
 H           8.170      -7.600       0.134
 H           8.273      -0.032      -0.137
 C          18.865       3.646      -0.061
 C          20.354       3.598       0.041
 C          21.078       4.892      -0.002
 C          16.706       4.918      -0.221
 C          18.164       4.924      -0.040
 C          18.934       6.169       0.099
 C          20.408       6.096       0.073
 C          12.345       5.007      -0.103
 C          13.813       4.958      -0.254
 C          14.549       6.208      -0.324
 C          16.013       6.192      -0.322
 C          16.789       7.414      -0.119
 C          18.214       7.375       0.056
 C          11.617       6.258       0.026
 C          12.364       7.451      -0.009
 C          13.791       7.452      -0.161
 C          14.596       8.656      -0.126
 C          16.013       8.635      -0.107
 C           9.443       5.039      -0.113
 C          10.135       6.222      -0.018
 C          13.631      -7.616       0.356
 C          12.164      -7.618       0.278
 C          11.425      -8.879       0.253
 C           9.956      -8.884       0.187
 C          11.531      -1.322      -0.195
 C           9.252     -10.154       0.319
 C          15.819      -8.927       0.548
 C          14.327      -8.914       0.513
 C          15.911      -1.393      -0.143
 C          13.582     -10.160       0.407
 C          14.458      -1.370      -0.192
 C          12.135     -10.165       0.239
 C          13.722      -2.642      -0.233
 C          11.622       3.737      -0.159
 C          11.409     -11.441       0.332
 C          12.256      -2.594      -0.364
 C          10.132       3.730      -0.108
 C           9.924     -11.399       0.398
 C          11.492      -3.861      -0.233
 C           9.422       2.500      -0.108
 C           9.206     -12.689       0.463
 C          20.313      -1.441      -0.093
 C          17.987     -10.236       0.328
 C          18.823      -1.417      -0.073
 C          16.543     -10.199       0.449
 C          18.083      -2.666      -0.251
 C          15.976       3.610      -0.146
 C          15.777     -11.430       0.357
 C          16.619      -2.677      -0.167
 C          14.512       3.638      -0.162
 C          14.310     -11.419       0.346
 C          13.753       2.407      -0.005
 C          13.586     -12.725       0.331
 C          15.883      -3.918       0.012
 C          14.413      -3.907      -0.025
 C          12.316       2.442      -0.168
 C          12.112     -12.731       0.475
 C          13.680      -5.143      -0.157
 C          11.566       1.182      -0.061
 C          11.343     -13.960       0.679
 C          12.217      -5.160      -0.268
 C          10.091       1.206      -0.158
 C           9.865     -13.884       0.644
 C          20.962      -2.697       0.174
 C          18.669     -11.536       0.442
 C          20.253      -3.972       0.138
 C          18.143       2.361      -0.083
 C          17.936     -12.802       0.548
 C          18.809      -3.953      -0.099
 C          16.704       2.367       0.036
 C          16.470     -12.757       0.358
 C          18.052      -5.228      -0.142
 C          15.957       1.134       0.209
 C          15.740     -14.018       0.327
 C          16.588      -5.180      -0.101
 C          14.455       1.153       0.185
 C          14.281     -13.997       0.319
 C          15.848      -6.443       0.015
 C          13.738      -0.143       0.105
 C          13.495     -15.204       0.555
 C          14.374      -6.427      -0.011
 C          12.262      -0.105       0.030
 C          12.064     -15.169       0.695
 C          20.926      -5.252       0.255
 C          18.854       1.091       0.033
 C          18.669     -14.051       0.769
 C          20.238      -6.510       0.099
 C          18.120      -0.182       0.111
 C          17.919     -15.239       0.755
 C          18.759      -6.483       0.127
 C          16.643      -0.173       0.144
 C          16.492     -15.245       0.581
 C          18.024      -7.694       0.373
 C          15.688     -16.452       0.638
 C          16.549      -7.657       0.410
 C          14.270     -16.426       0.628
 C          20.919      -7.774       0.261
 C          20.194      -9.005       0.371
 C          18.731      -8.971       0.368
 C          20.867     -10.297       0.525
 C          20.156     -11.526       0.563
 C          11.469      -6.391      -0.002
 C          21.035       2.351       0.068
 C          20.840     -12.822       0.620
 C          20.329       1.075       0.015
 C          20.152     -14.008       0.755
 C          21.022      -0.178      -0.012
 C           9.988      -6.379      -0.124
 C          10.037      -3.839      -0.072
 C          10.050      -1.309      -0.293
 C           9.356      -2.552      -0.081
 C           9.329      -5.105       0.009
 C           9.270      -7.630       0.028
 C           9.370      -0.033      -0.226
