   142
 frame    919
 H          22.172       4.851      -0.067
 H          20.938       7.032      -0.099
 H          18.753       8.311      -0.074
 H          14.063       9.635      -0.055
 H          16.571       9.603      -0.037
 H           9.637       7.173      -0.196
 H           8.348       5.026      -0.217
 H          11.850       8.399      -0.126
 H           8.142     -10.125       0.251
 H           8.313       2.496      -0.186
 H           8.113     -12.652       0.384
 H           9.346     -14.828       0.525
 H          11.529     -16.106       0.629
 H          16.217     -17.428       0.736
 H          13.711     -17.396       0.717
 H          20.647     -14.970       0.637
 H          22.082      -2.727       0.249
 H          22.049      -5.248       0.355
 H          22.011      -7.770       0.426
 H          21.972     -10.296       0.489
 H          22.143       2.322       0.013
 H          21.936     -12.823       0.564
 H          18.431     -16.193       0.686
 H          22.114      -0.204       0.122
 H           8.238      -2.554      -0.062
 H           8.203      -5.077       0.031
 H           8.170      -7.600       0.134
 H           8.273      -0.032      -0.137
 C          18.880       3.639       0.179
 C          20.366       3.600       0.151
 C          21.048       4.899      -0.015
 C          16.692       4.860       0.007
 C          18.136       4.872       0.116
 C          18.860       6.161       0.050
 C          20.346       6.101      -0.034
 C          12.377       4.943       0.036
 C          13.821       4.888      -0.022
 C          14.549       6.178      -0.155
 C          16.000       6.166      -0.131
 C          16.746       7.426      -0.125
 C          18.172       7.369      -0.084
 C          11.685       6.250      -0.025
 C          12.411       7.439      -0.148
 C          13.835       7.464      -0.148
 C          14.606       8.664      -0.114
 C          16.006       8.645      -0.099
 C           9.481       5.048      -0.140
 C          10.211       6.230      -0.153
 C          13.650      -7.610       0.782
 C          12.201      -7.629       0.802
 C          11.407      -8.849       0.667
 C           9.948      -8.867       0.554
 C          11.572      -1.283       0.575
 C           9.232     -10.149       0.494
 C          15.795      -8.924       0.721
 C          14.339      -8.908       0.703
 C          15.902      -1.443       0.762
 C          13.545     -10.135       0.569
 C          14.429      -1.417       0.740
 C          12.091     -10.129       0.601
 C          13.715      -2.637       1.079
 C          11.609       3.724       0.073
 C          11.397     -11.406       0.593
 C          12.263      -2.561       0.834
 C          10.125       3.726       0.003
 C           9.918     -11.377       0.534
 C          11.489      -3.829       0.777
 C           9.402       2.517       0.062
 C           9.235     -12.695       0.475
 C          20.252      -1.413       0.533
 C          18.011     -10.191       0.674
 C          18.770      -1.378       0.729
 C          16.560     -10.168       0.607
 C          18.026      -2.637       0.959
 C          15.989       3.589       0.053
 C          15.788     -11.378       0.562
 C          16.569      -2.680       1.121
 C          14.498       3.603       0.039
 C          14.297     -11.365       0.540
 C          13.716       2.397       0.130
 C          13.597     -12.643       0.551
 C          15.847      -3.862       1.517
 C          14.388      -3.842       1.496
 C          12.267       2.430       0.154
 C          12.141     -12.648       0.629
 C          13.680      -5.059       1.155
 C          11.553       1.174       0.307
 C          11.413     -13.946       0.651
 C          12.226      -5.102       0.921
 C          10.086       1.231       0.191
 C           9.933     -13.893       0.542
 C          20.960      -2.681       0.559
 C          18.668     -11.490       0.693
 C          20.265      -3.934       0.791
 C          18.185       2.349       0.238
 C          17.904     -12.720       0.708
 C          18.773      -3.917       0.942
 C          16.733       2.354       0.159
 C          16.455     -12.675       0.569
 C          17.993      -5.174       1.044
 C          15.934       1.132       0.372
 C          15.731     -13.979       0.509
 C          16.535      -5.100       1.198
 C          14.469       1.153       0.347
 C          14.279     -13.961       0.489
 C          15.829      -6.343       0.921
 C          13.758      -0.114       0.520
 C          13.530     -15.210       0.550
 C          14.365      -6.321       0.887
 C          12.306      -0.049       0.544
 C          12.111     -15.164       0.583
 C          20.924      -5.226       0.650
 C          18.856       1.083       0.440
 C          18.595     -14.043       0.735
 C          20.181      -6.481       0.725
 C          18.063      -0.122       0.648
 C          17.875     -15.238       0.630
 C          18.692      -6.470       0.909
 C          16.608      -0.153       0.569
 C          16.455     -15.252       0.568
 C          17.951      -7.704       0.936
 C          15.672     -16.459       0.630
 C          16.508      -7.654       0.841
 C          14.273     -16.439       0.618
 C          20.910      -7.744       0.638
 C          20.192      -8.990       0.744
 C          18.727      -8.940       0.792
 C          20.870     -10.288       0.701
 C          20.156     -11.505       0.688
 C          11.509      -6.382       0.761
 C          21.049       2.369       0.230
 C          20.817     -12.844       0.619
 C          20.324       1.094       0.369
 C          20.082     -14.025       0.653
 C          21.005      -0.173       0.347
 C          10.022      -6.354       0.506
 C           9.995      -3.809       0.555
 C          10.087      -1.292       0.327
 C           9.340      -2.539       0.307
 C           9.314      -5.089       0.397
 C           9.262      -7.604       0.400
 C           9.377      -0.026       0.109
