   142
 frame    884
 H          22.172       4.851      -0.067
 H          20.938       7.032      -0.099
 H          18.753       8.311      -0.074
 H          14.063       9.635      -0.055
 H          16.571       9.603      -0.037
 H           9.637       7.173      -0.196
 H           8.348       5.026      -0.217
 H          11.850       8.399      -0.126
 H           8.142     -10.125       0.251
 H           8.313       2.496      -0.186
 H           8.113     -12.652       0.384
 H           9.346     -14.828       0.525
 H          11.529     -16.106       0.629
 H          16.217     -17.428       0.736
 H          13.711     -17.396       0.717
 H          20.647     -14.970       0.637
 H          22.082      -2.727       0.249
 H          22.049      -5.248       0.355
 H          22.011      -7.770       0.426
 H          21.972     -10.296       0.489
 H          22.143       2.322       0.013
 H          21.936     -12.823       0.564
 H          18.431     -16.193       0.686
 H          22.114      -0.204       0.122
 H           8.238      -2.554      -0.062
 H           8.203      -5.077       0.031
 H           8.170      -7.600       0.134
 H           8.273      -0.032      -0.137
 C          18.887       3.588       0.264
 C          20.344       3.553       0.182
 C          21.064       4.849       0.062
 C          16.726       4.910       0.058
 C          18.185       4.853      -0.029
 C          18.945       6.118      -0.215
 C          20.398       6.057      -0.100
 C          12.319       4.927      -0.104
 C          13.786       4.945       0.015
 C          14.547       6.171      -0.083
 C          16.007       6.151      -0.055
 C          16.775       7.406      -0.158
 C          18.226       7.370      -0.207
 C          11.607       6.219      -0.294
 C          12.355       7.445      -0.261
 C          13.812       7.439      -0.180
 C          14.615       8.700      -0.246
 C          16.011       8.678      -0.228
 C           9.455       4.993      -0.075
 C          10.149       6.182      -0.197
 C          13.612      -7.640       0.812
 C          12.113      -7.647       0.735
 C          11.394      -8.893       0.795
 C           9.931      -8.841       0.616
 C          11.456      -1.324       0.540
 C           9.237     -10.095       0.498
 C          15.814      -8.920       0.672
 C          14.329      -8.898       0.640
 C          15.903      -1.337       0.962
 C          13.603     -10.163       0.730
 C          14.415      -1.322       0.923
 C          12.135     -10.122       0.820
 C          13.628      -2.580       0.991
 C          11.584       3.680       0.165
 C          11.388     -11.366       0.702
 C          12.142      -2.583       0.848
 C          10.138       3.682       0.050
 C           9.931     -11.351       0.589
 C          11.419      -3.824       0.712
 C           9.406       2.448       0.038
 C           9.213     -12.648       0.530
 C          20.333      -1.442       0.445
 C          17.963     -10.208       0.926
 C          18.870      -1.411       0.691
 C          16.502     -10.200       0.787
 C          18.145      -2.650       0.973
 C          15.970       3.664       0.174
 C          15.763     -11.473       0.680
 C          16.646      -2.613       1.059
 C          14.510       3.681       0.131
 C          14.310     -11.451       0.655
 C          13.763       2.420       0.279
 C          13.545     -12.700       0.604
 C          15.875      -3.870       1.041
 C          14.361      -3.857       0.994
 C          12.289       2.429       0.360
 C          12.089     -12.649       0.489
 C          13.593      -5.116       1.067
 C          11.524       1.214       0.432
 C          11.342     -13.935       0.372
 C          12.106      -5.093       0.930
 C          10.071       1.184       0.239
 C           9.884     -13.861       0.451
 C          21.018      -2.709       0.347
 C          18.687     -11.457       0.805
 C          20.305      -3.957       0.513
 C          18.146       2.360       0.467
 C          17.957     -12.719       0.568
 C          18.834      -3.919       0.868
 C          16.679       2.389       0.344
 C          16.493     -12.737       0.655
 C          18.115      -5.167       1.065
 C          15.941       1.119       0.327
 C          15.738     -13.963       0.593
 C          16.614      -5.145       1.144
 C          14.455       1.141       0.294
 C          14.277     -13.946       0.575
 C          15.838      -6.412       1.145
 C          13.710      -0.093       0.530
 C          13.516     -15.210       0.525
 C          14.342      -6.391       1.110
 C          12.216      -0.062       0.462
 C          12.064     -15.177       0.441
 C          20.977      -5.240       0.455
 C          18.878       1.120       0.566
 C          18.683     -14.024       0.436
 C          20.273      -6.482       0.644
 C          18.149      -0.137       0.582
 C          17.930     -15.251       0.506
 C          18.805      -6.454       0.867
 C          16.657      -0.131       0.589
 C          16.472     -15.244       0.564
 C          18.054      -7.728       0.836
 C          15.680     -16.487       0.536
 C          16.549      -7.667       0.849
 C          14.280     -16.469       0.523
 C          20.916      -7.765       0.620
 C          20.198      -8.971       0.811
 C          18.732      -8.991       0.931
 C          20.873     -10.240       0.687
 C          20.145     -11.478       0.728
 C          11.382      -6.358       0.715
 C          21.039       2.300       0.217
 C          20.824     -12.793       0.680
 C          20.338       1.058       0.406
 C          20.138     -13.994       0.560
 C          21.022      -0.183       0.333
 C           9.940      -6.352       0.405
 C           9.975      -3.827       0.284
 C          10.003      -1.311       0.239
 C           9.297      -2.565       0.077
 C           9.274      -5.088       0.180
 C           9.261      -7.618       0.378
 C           9.355      -0.038       0.114
