   142
 frame    514
 H          22.172       4.851      -0.067
 H          20.938       7.032      -0.099
 H          18.753       8.311      -0.074
 H          14.063       9.635      -0.055
 H          16.571       9.603      -0.037
 H           9.637       7.173      -0.196
 H           8.348       5.026      -0.217
 H          11.850       8.399      -0.126
 H           8.142     -10.125       0.251
 H           8.313       2.496      -0.186
 H           8.113     -12.652       0.384
 H           9.346     -14.828       0.525
 H          11.529     -16.106       0.629
 H          16.217     -17.428       0.736
 H          13.711     -17.396       0.717
 H          20.647     -14.970       0.637
 H          22.082      -2.727       0.249
 H          22.049      -5.248       0.355
 H          22.011      -7.770       0.426
 H          21.972     -10.296       0.489
 H          22.143       2.322       0.013
 H          21.936     -12.823       0.564
 H          18.431     -16.193       0.686
 H          22.114      -0.204       0.122
 H           8.238      -2.554      -0.062
 H           8.203      -5.077       0.031
 H           8.170      -7.600       0.134
 H           8.273      -0.032      -0.137
 C          18.832       3.614      -0.004
 C          20.322       3.606       0.046
 C          21.073       4.863      -0.026
 C          16.710       4.838      -0.226
 C          18.164       4.872      -0.202
 C          18.932       6.121      -0.276
 C          20.397       6.063      -0.153
 C          12.350       4.950      -0.269
 C          13.814       4.874      -0.259
 C          14.531       6.144      -0.208
 C          16.018       6.128      -0.192
 C          16.760       7.407      -0.235
 C          18.201       7.360      -0.322
 C          11.620       6.217      -0.343
 C          12.384       7.432      -0.364
 C          13.820       7.449      -0.250
 C          14.610       8.683      -0.212
 C          16.005       8.661      -0.194
 C           9.445       5.002      -0.172
 C          10.156       6.190      -0.271
 C          13.670      -7.632      -0.186
 C          12.215      -7.610      -0.026
 C          11.455      -8.874       0.050
 C           9.962      -8.869       0.174
 C          11.564      -1.359      -0.125
 C           9.266     -10.154       0.317
 C          15.811      -8.915      -0.263
 C          14.362      -8.896      -0.307
 C          15.902      -1.422      -0.147
 C          13.590     -10.137      -0.064
 C          14.463      -1.404      -0.179
 C          12.146     -10.143       0.177
 C          13.727      -2.642      -0.027
 C          11.653       3.706      -0.098
 C          11.445     -11.411       0.417
 C          12.262      -2.614       0.004
 C          10.173       3.719      -0.090
 C           9.971     -11.393       0.414
 C          11.531      -3.863      -0.056
 C           9.434       2.498      -0.111
 C           9.213     -12.656       0.429
 C          20.272      -1.456       0.067
 C          17.971     -10.218       0.270
 C          18.796      -1.441       0.022
 C          16.541     -10.167      -0.020
 C          18.063      -2.680       0.099
 C          15.983       3.545      -0.378
 C          15.782     -11.380       0.108
 C          16.599      -2.677       0.014
 C          14.510       3.561      -0.404
 C          14.310     -11.358       0.085
 C          13.749       2.345      -0.473
 C          13.575     -12.649       0.295
 C          15.866      -3.919       0.098
 C          14.422      -3.898       0.087
 C          12.324       2.408      -0.247
 C          12.114     -12.678       0.295
 C          13.694      -5.141       0.035
 C          11.591       1.154      -0.277
 C          11.344     -13.930       0.296
 C          12.232      -5.122       0.066
 C          10.099       1.193      -0.178
 C           9.885     -13.863       0.399
 C          20.953      -2.727       0.089
 C          18.634     -11.505       0.510
 C          20.224      -3.979       0.063
 C          18.137       2.341      -0.165
 C          17.934     -12.756       0.368
 C          18.756      -3.960       0.091
 C          16.714       2.310      -0.428
 C          16.479     -12.684       0.330
 C          18.024      -5.198       0.179
 C          15.950       1.052      -0.584
 C          15.752     -13.949       0.419
 C          16.561      -5.172       0.073
 C          14.492       1.070      -0.604
 C          14.259     -13.929       0.415
 C          15.832      -6.424      -0.004
 C          13.765      -0.172      -0.407
 C          13.520     -15.212       0.426
 C          14.397      -6.406      -0.019
 C          12.306      -0.133      -0.257
 C          12.081     -15.164       0.330
 C          20.924      -5.232       0.182
 C          18.838       1.064      -0.156
 C          18.675     -14.016       0.379
 C          20.205      -6.470       0.259
 C          18.085      -0.197      -0.153
 C          17.917     -15.235       0.384
 C          18.735      -6.459       0.174
 C          16.634      -0.211      -0.358
 C          16.465     -15.250       0.454
 C          17.984      -7.683       0.072
 C          15.676     -16.488       0.531
 C          16.532      -7.662      -0.135
 C          14.284     -16.468       0.528
 C          20.893      -7.748       0.394
 C          20.191      -9.001       0.362
 C          18.699      -8.961       0.179
 C          20.847     -10.306       0.515
 C          20.111     -11.519       0.557
 C          11.492      -6.364       0.037
 C          21.017       2.357       0.043
 C          20.836     -12.800       0.568
 C          20.324       1.072      -0.009
 C          20.131     -13.986       0.506
 C          20.995      -0.194       0.113
 C          10.009      -6.345       0.034
 C          10.068      -3.846      -0.156
 C          10.085      -1.340      -0.137
 C           9.368      -2.586      -0.167
 C           9.328      -5.086      -0.082
 C           9.283      -7.606       0.154
 C           9.391      -0.053      -0.107
