   142
 frame    537
 H          22.172       4.851      -0.067
 H          20.938       7.032      -0.099
 H          18.753       8.311      -0.074
 H          14.063       9.635      -0.055
 H          16.571       9.603      -0.037
 H           9.637       7.173      -0.196
 H           8.348       5.026      -0.217
 H          11.850       8.399      -0.126
 H           8.142     -10.125       0.251
 H           8.313       2.496      -0.186
 H           8.113     -12.652       0.384
 H           9.346     -14.828       0.525
 H          11.529     -16.106       0.629
 H          16.217     -17.428       0.736
 H          13.711     -17.396       0.717
 H          20.647     -14.970       0.637
 H          22.082      -2.727       0.249
 H          22.049      -5.248       0.355
 H          22.011      -7.770       0.426
 H          21.972     -10.296       0.489
 H          22.143       2.322       0.013
 H          21.936     -12.823       0.564
 H          18.431     -16.193       0.686
 H          22.114      -0.204       0.122
 H           8.238      -2.554      -0.062
 H           8.203      -5.077       0.031
 H           8.170      -7.600       0.134
 H           8.273      -0.032      -0.137
 C          18.890       3.562       0.019
 C          20.383       3.551       0.034
 C          21.055       4.872      -0.009
 C          16.735       4.871      -0.312
 C          18.168       4.827      -0.078
 C          18.884       6.111      -0.041
 C          20.360       6.081      -0.009
 C          12.344       4.893      -0.147
 C          13.794       4.906      -0.349
 C          14.542       6.143      -0.360
 C          16.013       6.126      -0.346
 C          16.732       7.372      -0.216
 C          18.156       7.340      -0.087
 C          11.667       6.193      -0.126
 C          12.424       7.407      -0.127
 C          13.846       7.410      -0.234
 C          14.611       8.643      -0.107
 C          16.002       8.625      -0.109
 C           9.458       5.014      -0.154
 C          10.197       6.200      -0.122
 C          13.620      -7.663      -0.010
 C          12.161      -7.644      -0.120
 C          11.449      -8.874       0.166
 C           9.964      -8.842       0.237
 C          11.524      -1.347      -0.247
 C           9.236     -10.093       0.264
 C          15.799      -8.952       0.068
 C          14.362      -8.923       0.070
 C          15.919      -1.374      -0.019
 C          13.633     -10.206       0.179
 C          14.440      -1.354      -0.020
 C          12.161     -10.129       0.326
 C          13.703      -2.636      -0.031
 C          11.587       3.650      -0.072
 C          11.390     -11.355       0.415
 C          12.228      -2.605      -0.134
 C          10.106       3.676      -0.100
 C           9.910     -11.339       0.401
 C          11.487      -3.865      -0.122
 C           9.405       2.442      -0.154
 C           9.235     -12.664       0.432
 C          20.290      -1.453       0.093
 C          17.955     -10.208       0.414
 C          18.845      -1.442      -0.111
 C          16.490     -10.243       0.219
 C          18.097      -2.681      -0.021
 C          15.972       3.635      -0.337
 C          15.759     -11.470       0.163
 C          16.621      -2.668       0.006
 C          14.525       3.653      -0.349
 C          14.321     -11.449       0.143
 C          13.791       2.431      -0.228
 C          13.565     -12.690       0.231
 C          15.880      -3.917      -0.096
 C          14.416      -3.894      -0.117
 C          12.331       2.398      -0.087
 C          12.125     -12.626       0.431
 C          13.667      -5.128       0.052
 C          11.578       1.152      -0.181
 C          11.409     -13.912       0.531
 C          12.199      -5.135      -0.055
 C          10.090       1.159      -0.094
 C           9.937     -13.867       0.530
 C          20.989      -2.704       0.084
 C          18.694     -11.448       0.523
 C          20.305      -3.971       0.024
 C          18.124       2.339      -0.011
 C          17.928     -12.702       0.501
 C          18.813      -3.955       0.030
 C          16.670       2.399      -0.199
 C          16.493     -12.724       0.271
 C          18.069      -5.201       0.047
 C          15.938       1.115      -0.238
 C          15.748     -13.958       0.304
 C          16.595      -5.160       0.101
 C          14.497       1.134      -0.254
 C          14.273     -13.943       0.275
 C          15.854      -6.447       0.152
 C          13.730      -0.115      -0.241
 C          13.543     -15.177       0.447
 C          14.369      -6.426       0.128
 C          12.262      -0.112      -0.361
 C          12.127     -15.146       0.571
 C          20.948      -5.247       0.197
 C          18.853       1.066      -0.054
 C          18.603     -14.008       0.595
 C          20.213      -6.479       0.266
 C          18.140      -0.182      -0.255
 C          17.854     -15.223       0.618
 C          18.776      -6.477       0.046
 C          16.668      -0.150      -0.201
 C          16.433     -15.216       0.468
 C          18.038      -7.718      -0.012
 C          15.671     -16.438       0.617
 C          16.570      -7.702       0.030
 C          14.284     -16.422       0.599
 C          20.891      -7.738       0.411
 C          20.189      -8.976       0.434
 C          18.706      -8.966       0.298
 C          20.876     -10.246       0.461
 C          20.172     -11.469       0.554
 C          11.460      -6.387      -0.098
 C          21.051       2.293       0.021
 C          20.815     -12.816       0.590
 C          20.335       1.040       0.072
 C          20.080     -13.998       0.643
 C          21.001      -0.214       0.117
 C          10.008      -6.357       0.068
 C           9.998      -3.844      -0.212
 C          10.070      -1.330      -0.108
 C           9.341      -2.565      -0.158
 C           9.308      -5.107      -0.066
 C           9.288      -7.596       0.179
 C           9.381      -0.070      -0.094
