   142
 frame    952
 H          22.172       4.851      -0.067
 H          20.938       7.032      -0.099
 H          18.753       8.311      -0.074
 H          14.063       9.635      -0.055
 H          16.571       9.603      -0.037
 H           9.637       7.173      -0.196
 H           8.348       5.026      -0.217
 H          11.850       8.399      -0.126
 H           8.142     -10.125       0.251
 H           8.313       2.496      -0.186
 H           8.113     -12.652       0.384
 H           9.346     -14.828       0.525
 H          11.529     -16.106       0.629
 H          16.217     -17.428       0.736
 H          13.711     -17.396       0.717
 H          20.647     -14.970       0.637
 H          22.082      -2.727       0.249
 H          22.049      -5.248       0.355
 H          22.011      -7.770       0.426
 H          21.972     -10.296       0.489
 H          22.143       2.322       0.013
 H          21.936     -12.823       0.564
 H          18.431     -16.193       0.686
 H          22.114      -0.204       0.122
 H           8.238      -2.554      -0.062
 H           8.203      -5.077       0.031
 H           8.170      -7.600       0.134
 H           8.273      -0.032      -0.137
 C          18.868       3.535       0.074
 C          20.341       3.525       0.042
 C          21.064       4.828       0.023
 C          16.754       4.863      -0.079
 C          18.210       4.840       0.051
 C          18.938       6.100       0.142
 C          20.408       6.046       0.073
 C          12.303       4.917      -0.026
 C          13.767       4.902      -0.111
 C          14.532       6.143      -0.082
 C          16.019       6.128      -0.071
 C          16.793       7.354       0.015
 C          18.237       7.350       0.113
 C          11.603       6.191       0.072
 C          12.336       7.419       0.058
 C          13.782       7.394      -0.014
 C          14.592       8.623       0.016
 C          16.007       8.595       0.025
 C           9.460       4.974      -0.112
 C          10.139       6.181      -0.032
 C          13.553      -7.603       0.870
 C          12.078      -7.567       0.694
 C          11.441      -8.823       0.444
 C           9.962      -8.822       0.296
 C          11.407      -1.321       0.613
 C           9.246     -10.099       0.228
 C          15.822      -8.891       0.751
 C          14.317      -8.866       0.730
 C          15.914      -1.340       1.028
 C          13.622     -10.123       0.544
 C          14.403      -1.328       0.997
 C          12.156     -10.092       0.521
 C          13.661      -2.596       0.958
 C          11.615       3.626      -0.017
 C          11.412     -11.332       0.495
 C          12.135      -2.555       0.910
 C          10.152       3.644      -0.106
 C           9.945     -11.317       0.409
 C          11.378      -3.822       0.902
 C           9.410       2.447      -0.216
 C           9.230     -12.625       0.467
 C          20.407      -1.439       0.629
 C          17.947     -10.164       0.622
 C          18.923      -1.413       0.763
 C          16.491     -10.158       0.584
 C          18.153      -2.624       1.027
 C          15.967       3.613       0.011
 C          15.762     -11.418       0.516
 C          16.624      -2.634       1.035
 C          14.514       3.635      -0.006
 C          14.316     -11.407       0.498
 C          13.783       2.381       0.135
 C          13.534     -12.660       0.484
 C          15.855      -3.871       0.894
 C          14.405      -3.856       0.853
 C          12.329       2.378       0.112
 C          12.079     -12.637       0.592
 C          13.631      -5.087       1.060
 C          11.571       1.136       0.095
 C          11.341     -13.896       0.719
 C          12.101      -5.108       0.994
 C          10.094       1.153      -0.033
 C           9.868     -13.842       0.631
 C          21.029      -2.718       0.534
 C          18.668     -11.426       0.594
 C          20.310      -3.951       0.738
 C          18.120       2.314       0.193
 C          17.965     -12.715       0.638
 C          18.863      -3.910       1.051
 C          16.658       2.342       0.177
 C          16.510     -12.694       0.495
 C          18.113      -5.178       1.125
 C          15.951       1.106       0.400
 C          15.748     -13.938       0.557
 C          16.585      -5.115       1.124
 C          14.451       1.122       0.382
 C          14.267     -13.922       0.533
 C          15.855      -6.399       1.202
 C          13.658      -0.109       0.619
 C          13.490     -15.148       0.672
 C          14.326      -6.377       1.174
 C          12.184      -0.118       0.437
 C          12.046     -15.134       0.761
 C          20.997      -5.210       0.639
 C          18.848       1.045       0.215
 C          18.676     -13.983       0.794
 C          20.338      -6.465       0.819
 C          18.198      -0.199       0.535
 C          17.941     -15.211       0.815
 C          18.849      -6.435       0.951
 C          16.715      -0.142       0.670
 C          16.498     -15.188       0.687
 C          18.087      -7.640       0.799
 C          15.685     -16.401       0.750
 C          16.611      -7.648       0.930
 C          14.269     -16.383       0.740
 C          20.936      -7.752       0.589
 C          20.179      -8.948       0.487
 C          18.697      -8.911       0.575
 C          20.874     -10.245       0.421
 C          20.139     -11.448       0.566
 C          11.328      -6.337       0.801
 C          21.040       2.299      -0.030
 C          20.824     -12.775       0.634
 C          20.320       1.034       0.142
 C          20.153     -13.971       0.755
 C          21.035      -0.185       0.306
 C           9.858      -6.331       0.592
 C           9.948      -3.822       0.501
 C           9.938      -1.314       0.402
 C           9.276      -2.567       0.259
 C           9.240      -5.060       0.360
 C           9.243      -7.600       0.349
 C           9.348      -0.043       0.094
