   142
 frame    643
 H          22.172       4.851      -0.067
 H          20.938       7.032      -0.099
 H          18.753       8.311      -0.074
 H          14.063       9.635      -0.055
 H          16.571       9.603      -0.037
 H           9.637       7.173      -0.196
 H           8.348       5.026      -0.217
 H          11.850       8.399      -0.126
 H           8.142     -10.125       0.251
 H           8.313       2.496      -0.186
 H           8.113     -12.652       0.384
 H           9.346     -14.828       0.525
 H          11.529     -16.106       0.629
 H          16.217     -17.428       0.736
 H          13.711     -17.396       0.717
 H          20.647     -14.970       0.637
 H          22.082      -2.727       0.249
 H          22.049      -5.248       0.355
 H          22.011      -7.770       0.426
 H          21.972     -10.296       0.489
 H          22.143       2.322       0.013
 H          21.936     -12.823       0.564
 H          18.431     -16.193       0.686
 H          22.114      -0.204       0.122
 H           8.238      -2.554      -0.062
 H           8.203      -5.077       0.031
 H           8.170      -7.600       0.134
 H           8.273      -0.032      -0.137
 C          18.892       3.575       0.065
 C          20.349       3.559      -0.052
 C          21.050       4.874      -0.176
 C          16.720       4.829       0.346
 C          18.181       4.842       0.138
 C          18.870       6.116       0.047
 C          20.341       6.073      -0.181
 C          12.335       4.915       0.078
 C          13.769       4.867       0.331
 C          14.544       6.104       0.204
 C          15.991       6.089       0.208
 C          16.714       7.368       0.122
 C          18.157       7.355       0.066
 C          11.680       6.209      -0.015
 C          12.424       7.433       0.020
 C          13.859       7.404       0.103
 C          14.611       8.661       0.061
 C          15.997       8.644       0.071
 C           9.478       5.025      -0.307
 C          10.215       6.203      -0.273
 C          13.641      -7.660       0.227
 C          12.181      -7.604       0.301
 C          11.445      -8.841       0.533
 C           9.975      -8.851       0.421
 C          11.548      -1.333      -0.089
 C           9.244     -10.130       0.419
 C          15.790      -8.902       0.644
 C          14.344      -8.891       0.608
 C          15.901      -1.369      -0.199
 C          13.626     -10.126       0.746
 C          14.466      -1.349      -0.233
 C          12.151     -10.111       0.563
 C          13.714      -2.607      -0.066
 C          11.594       3.662      -0.025
 C          11.385     -11.365       0.482
 C          12.239      -2.611      -0.178
 C          10.140       3.681      -0.182
 C           9.939     -11.358       0.326
 C          11.501      -3.878      -0.134
 C           9.412       2.476      -0.027
 C           9.242     -12.683       0.282
 C          20.297      -1.414       0.123
 C          17.957     -10.190       0.665
 C          18.816      -1.424       0.036
 C          16.475     -10.160       0.803
 C          18.092      -2.687      -0.064
 C          15.948       3.602       0.509
 C          15.750     -11.398       1.027
 C          16.618      -2.647      -0.011
 C          14.512       3.618       0.503
 C          14.309     -11.378       0.993
 C          13.798       2.373       0.327
 C          13.542     -12.611       0.903
 C          15.886      -3.903       0.237
 C          14.395      -3.879       0.202
 C          12.321       2.397       0.138
 C          12.097     -12.630       0.655
 C          13.683      -5.162       0.045
 C          11.579       1.146       0.185
 C          11.411     -13.910       0.627
 C          12.208      -5.143      -0.085
 C          10.105       1.186       0.063
 C           9.941     -13.883       0.378
 C          20.955      -2.702       0.256
 C          18.688     -11.452       0.602
 C          20.251      -3.966       0.206
 C          18.126       2.327       0.226
 C          17.940     -12.699       0.734
 C          18.792      -3.961       0.012
 C          16.647       2.330       0.368
 C          16.489     -12.648       0.940
 C          18.051      -5.215       0.029
 C          15.928       1.102       0.289
 C          15.729     -13.884       0.851
 C          16.581      -5.200       0.091
 C          14.482       1.118       0.253
 C          14.283     -13.874       0.851
 C          15.840      -6.467      -0.010
 C          13.750      -0.106      -0.051
 C          13.560     -15.150       0.777
 C          14.399      -6.445      -0.039
 C          12.291      -0.121       0.021
 C          12.129     -15.144       0.714
 C          20.924      -5.234       0.337
 C          18.830       1.062       0.283
 C          18.602     -14.000       0.705
 C          20.232      -6.520       0.323
 C          18.099      -0.195       0.116
 C          17.851     -15.220       0.775
 C          18.747      -6.481       0.236
 C          16.652      -0.144       0.000
 C          16.418     -15.182       0.814
 C          18.001      -7.671       0.423
 C          15.669     -16.443       0.813
 C          16.547      -7.698       0.281
 C          14.281     -16.434       0.804
 C          20.917      -7.774       0.463
 C          20.167      -8.986       0.616
 C          18.694      -8.929       0.657
 C          20.867     -10.282       0.622
 C          20.153     -11.483       0.483
 C          11.476      -6.394       0.085
 C          21.037       2.338       0.136
 C          20.811     -12.827       0.421
 C          20.311       1.064       0.222
 C          20.069     -14.006       0.481
 C          21.024      -0.176       0.162
 C           9.990      -6.400       0.092
 C          10.027      -3.840      -0.028
 C          10.063      -1.288      -0.091
 C           9.366      -2.564      -0.007
 C           9.333      -5.094       0.066
 C           9.260      -7.629       0.210
 C           9.367      -0.035      -0.068
