   142
 frame    552
 H          22.172       4.851      -0.067
 H          20.938       7.032      -0.099
 H          18.753       8.311      -0.074
 H          14.063       9.635      -0.055
 H          16.571       9.603      -0.037
 H           9.637       7.173      -0.196
 H           8.348       5.026      -0.217
 H          11.850       8.399      -0.126
 H           8.142     -10.125       0.251
 H           8.313       2.496      -0.186
 H           8.113     -12.652       0.384
 H           9.346     -14.828       0.525
 H          11.529     -16.106       0.629
 H          16.217     -17.428       0.736
 H          13.711     -17.396       0.717
 H          20.647     -14.970       0.637
 H          22.082      -2.727       0.249
 H          22.049      -5.248       0.355
 H          22.011      -7.770       0.426
 H          21.972     -10.296       0.489
 H          22.143       2.322       0.013
 H          21.936     -12.823       0.564
 H          18.431     -16.193       0.686
 H          22.114      -0.204       0.122
 H           8.238      -2.554      -0.062
 H           8.203      -5.077       0.031
 H           8.170      -7.600       0.134
 H           8.273      -0.032      -0.137
 C          18.894       3.589      -0.036
 C          20.344       3.561       0.003
 C          21.075       4.842       0.004
 C          16.735       4.898      -0.302
 C          18.182       4.850      -0.033
 C          18.926       6.111       0.123
 C          20.405       6.048       0.033
 C          12.348       4.915      -0.106
 C          13.791       4.931      -0.322
 C          14.539       6.198      -0.445
 C          16.017       6.182      -0.426
 C          16.757       7.422      -0.164
 C          18.210       7.356       0.047
 C          11.618       6.204       0.043
 C          12.364       7.424      -0.019
 C          13.826       7.452      -0.178
 C          14.609       8.700      -0.080
 C          15.996       8.688      -0.072
 C           9.444       4.986      -0.123
 C          10.142       6.181      -0.066
 C          13.636      -7.678       0.158
 C          12.152      -7.645       0.122
 C          11.407      -8.895       0.206
 C           9.938      -8.874       0.230
 C          11.513      -1.345      -0.278
 C           9.240     -10.146       0.331
 C          15.812      -8.950       0.367
 C          14.340      -8.933       0.347
 C          15.920      -1.397      -0.078
 C          13.598     -10.176       0.299
 C          14.439      -1.384      -0.098
 C          12.124     -10.149       0.262
 C          13.682      -2.610      -0.175
 C          11.598       3.681      -0.139
 C          11.404     -11.398       0.362
 C          12.209      -2.629      -0.240
 C          10.140       3.691      -0.129
 C           9.940     -11.374       0.349
 C          11.484      -3.864      -0.250
 C           9.409       2.483      -0.109
 C           9.208     -12.645       0.462
 C          20.336      -1.459      -0.027
 C          17.994     -10.221       0.354
 C          18.859      -1.435      -0.141
 C          16.514     -10.211       0.327
 C          18.130      -2.700      -0.132
 C          15.987       3.665      -0.246
 C          15.790     -11.493       0.260
 C          16.650      -2.653      -0.119
 C          14.505       3.673      -0.262
 C          14.308     -11.469       0.237
 C          13.769       2.407      -0.111
 C          13.553     -12.701       0.261
 C          15.897      -3.902       0.034
 C          14.403      -3.885       0.004
 C          12.280       2.412      -0.141
 C          12.109     -12.636       0.478
 C          13.657      -5.161      -0.087
 C          11.539       1.178      -0.116
 C          11.358     -13.890       0.688
 C          12.176      -5.116      -0.158
 C          10.077       1.200      -0.113
 C           9.881     -13.845       0.584
 C          21.001      -2.731       0.140
 C          18.679     -11.486       0.472
 C          20.281      -3.963       0.177
 C          18.172       2.337      -0.062
 C          17.940     -12.715       0.548
 C          18.815      -3.957      -0.101
 C          16.683       2.371      -0.078
 C          16.501     -12.746       0.299
 C          18.091      -5.195      -0.048
 C          15.942       1.132       0.038
 C          15.750     -14.012       0.218
 C          16.608      -5.200      -0.027
 C          14.478       1.146       0.023
 C          14.273     -13.988       0.205
 C          15.850      -6.426       0.081
 C          13.728      -0.084      -0.092
 C          13.529     -15.221       0.504
 C          14.384      -6.406       0.056
 C          12.257      -0.086      -0.131
 C          12.072     -15.134       0.700
 C          20.977      -5.222       0.230
 C          18.878       1.084      -0.007
 C          18.659     -13.988       0.759
 C          20.281      -6.480       0.160
 C          18.140      -0.159      -0.045
 C          17.907     -15.213       0.745
 C          18.792      -6.470       0.030
 C          16.667      -0.127      -0.047
 C          16.459     -15.260       0.539
 C          18.037      -7.715       0.223
 C          15.665     -16.501       0.659
 C          16.559      -7.711       0.198
 C          14.278     -16.483       0.649
 C          20.928      -7.758       0.353
 C          20.210      -9.000       0.415
 C          18.740      -8.985       0.335
 C          20.869     -10.288       0.533
 C          20.139     -11.502       0.514
 C          11.436      -6.380      -0.110
 C          21.044       2.343       0.081
 C          20.840     -12.795       0.615
 C          20.343       1.067       0.058
 C          20.131     -13.980       0.704
 C          21.027      -0.195       0.067
 C           9.952      -6.355      -0.051
 C          10.005      -3.840      -0.038
 C          10.029      -1.329      -0.226
 C           9.324      -2.580      -0.121
 C           9.282      -5.078      -0.027
 C           9.256      -7.612       0.116
 C           9.365      -0.049      -0.139
