   142
 frame    628
 H          22.172       4.851      -0.067
 H          20.938       7.032      -0.099
 H          18.753       8.311      -0.074
 H          14.063       9.635      -0.055
 H          16.571       9.603      -0.037
 H           9.637       7.173      -0.196
 H           8.348       5.026      -0.217
 H          11.850       8.399      -0.126
 H           8.142     -10.125       0.251
 H           8.313       2.496      -0.186
 H           8.113     -12.652       0.384
 H           9.346     -14.828       0.525
 H          11.529     -16.106       0.629
 H          16.217     -17.428       0.736
 H          13.711     -17.396       0.717
 H          20.647     -14.970       0.637
 H          22.082      -2.727       0.249
 H          22.049      -5.248       0.355
 H          22.011      -7.770       0.426
 H          21.972     -10.296       0.489
 H          22.143       2.322       0.013
 H          21.936     -12.823       0.564
 H          18.431     -16.193       0.686
 H          22.114      -0.204       0.122
 H           8.238      -2.554      -0.062
 H           8.203      -5.077       0.031
 H           8.170      -7.600       0.134
 H           8.273      -0.032      -0.137
 C          18.883       3.562       0.115
 C          20.369       3.555      -0.067
 C          21.081       4.845      -0.257
 C          16.744       4.859       0.307
 C          18.195       4.836       0.137
 C          18.931       6.116      -0.116
 C          20.409       6.065      -0.244
 C          12.313       4.905       0.074
 C          13.766       4.894       0.293
 C          14.530       6.138       0.111
 C          16.006       6.109       0.120
 C          16.747       7.382      -0.002
 C          18.195       7.344      -0.068
 C          11.615       6.206      -0.200
 C          12.375       7.416      -0.118
 C          13.829       7.423      -0.005
 C          14.604       8.676       0.051
 C          16.003       8.655       0.058
 C           9.441       4.990      -0.373
 C          10.144       6.187      -0.343
 C          13.620      -7.591       0.308
 C          12.153      -7.602       0.309
 C          11.435      -8.871       0.393
 C           9.945      -8.840       0.394
 C          11.499      -1.389      -0.141
 C           9.234     -10.113       0.366
 C          15.813      -8.856       0.569
 C          14.332      -8.832       0.542
 C          15.929      -1.454      -0.131
 C          13.583     -10.105       0.718
 C          14.433      -1.432      -0.151
 C          12.150     -10.109       0.523
 C          13.690      -2.661      -0.150
 C          11.599       3.653       0.025
 C          11.399     -11.364       0.529
 C          12.222      -2.631      -0.167
 C          10.119       3.687      -0.183
 C           9.909     -11.369       0.318
 C          11.479      -3.862      -0.186
 C           9.408       2.457      -0.078
 C           9.194     -12.658       0.192
 C          20.312      -1.504       0.134
 C          17.960     -10.175       0.626
 C          18.860      -1.476      -0.003
 C          16.519     -10.140       0.775
 C          18.103      -2.704      -0.064
 C          15.988       3.605       0.522
 C          15.784     -11.387       1.013
 C          16.638      -2.694      -0.094
 C          14.485       3.626       0.494
 C          14.283     -11.373       0.991
 C          13.751       2.364       0.299
 C          13.532     -12.638       0.849
 C          15.871      -3.908       0.024
 C          14.423      -3.892       0.007
 C          12.317       2.386       0.102
 C          12.080     -12.627       0.643
 C          13.651      -5.116      -0.068
 C          11.575       1.164       0.033
 C          11.343     -13.922       0.463
 C          12.188      -5.108      -0.078
 C          10.090       1.170       0.045
 C           9.875     -13.867       0.313
 C          21.008      -2.748       0.128
 C          18.686     -11.457       0.638
 C          20.305      -3.976       0.150
 C          18.126       2.315       0.178
 C          17.965     -12.702       0.733
 C          18.826      -3.952      -0.041
 C          16.690       2.336       0.350
 C          16.501     -12.675       0.892
 C          18.076      -5.180       0.032
 C          15.941       1.051       0.219
 C          15.738     -13.926       0.782
 C          16.608      -5.149      -0.020
 C          14.468       1.071       0.194
 C          14.261     -13.909       0.752
 C          15.852      -6.372       0.078
 C          13.715      -0.170       0.029
 C          13.538     -15.187       0.689
 C          14.371      -6.358       0.046
 C          12.253      -0.123       0.047
 C          12.082     -15.144       0.582
 C          20.979      -5.225       0.223
 C          18.846       1.076       0.154
 C          18.667     -14.008       0.544
 C          20.242      -6.428       0.313
 C          18.132      -0.187       0.150
 C          17.899     -15.213       0.639
 C          18.791      -6.422       0.195
 C          16.669      -0.197       0.091
 C          16.435     -15.224       0.717
 C          18.026      -7.675       0.419
 C          15.672     -16.475       0.809
 C          16.567      -7.630       0.366
 C          14.278     -16.450       0.796
 C          20.894      -7.722       0.460
 C          20.194      -8.963       0.587
 C          18.708      -8.964       0.524
 C          20.872     -10.252       0.557
 C          20.173     -11.497       0.470
 C          11.435      -6.333       0.026
 C          21.048       2.315       0.089
 C          20.857     -12.807       0.349
 C          20.330       1.047       0.194
 C          20.146     -14.002       0.416
 C          20.995      -0.224       0.160
 C           9.975      -6.305       0.097
 C           9.991      -3.848      -0.077
 C          10.040      -1.376      -0.076
 C           9.316      -2.599      -0.134
 C           9.272      -5.080      -0.046
 C           9.288      -7.584       0.221
 C           9.390      -0.079      -0.042
