   142
 frame    576
 H          22.172       4.851      -0.067
 H          20.938       7.032      -0.099
 H          18.753       8.311      -0.074
 H          14.063       9.635      -0.055
 H          16.571       9.603      -0.037
 H           9.637       7.173      -0.196
 H           8.348       5.026      -0.217
 H          11.850       8.399      -0.126
 H           8.142     -10.125       0.251
 H           8.313       2.496      -0.186
 H           8.113     -12.652       0.384
 H           9.346     -14.828       0.525
 H          11.529     -16.106       0.629
 H          16.217     -17.428       0.736
 H          13.711     -17.396       0.717
 H          20.647     -14.970       0.637
 H          22.082      -2.727       0.249
 H          22.049      -5.248       0.355
 H          22.011      -7.770       0.426
 H          21.972     -10.296       0.489
 H          22.143       2.322       0.013
 H          21.936     -12.823       0.564
 H          18.431     -16.193       0.686
 H          22.114      -0.204       0.122
 H           8.238      -2.554      -0.062
 H           8.203      -5.077       0.031
 H           8.170      -7.600       0.134
 H           8.273      -0.032      -0.137
 C          18.876       3.650      -0.049
 C          20.352       3.616       0.054
 C          21.070       4.916       0.017
 C          16.707       4.887      -0.151
 C          18.159       4.905      -0.054
 C          18.897       6.158       0.021
 C          20.368       6.104       0.063
 C          12.364       4.974      -0.118
 C          13.806       4.934      -0.186
 C          14.556       6.168      -0.188
 C          15.996       6.141      -0.175
 C          16.748       7.390      -0.122
 C          18.189       7.380       0.004
 C          11.643       6.256      -0.045
 C          12.392       7.453      -0.050
 C          13.837       7.436      -0.170
 C          14.612       8.676      -0.157
 C          16.004       8.654      -0.134
 C           9.447       5.059      -0.103
 C          10.179       6.237      -0.022
 C          13.634      -7.622       0.413
 C          12.178      -7.625       0.303
 C          11.454      -8.905       0.281
 C           9.971      -8.879       0.158
 C          11.564      -1.347      -0.181
 C           9.244     -10.147       0.269
 C          15.810      -8.907       0.596
 C          14.335      -8.881       0.569
 C          15.905      -1.396      -0.112
 C          13.609     -10.147       0.452
 C          14.453      -1.380      -0.148
 C          12.151     -10.176       0.312
 C          13.723      -2.612      -0.252
 C          11.610       3.746      -0.147
 C          11.408     -11.457       0.342
 C          12.262      -2.618      -0.326
 C          10.132       3.743      -0.088
 C           9.923     -11.395       0.428
 C          11.540      -3.862      -0.260
 C           9.420       2.503      -0.150
 C           9.217     -12.701       0.481
 C          20.272      -1.430      -0.032
 C          17.972     -10.251       0.397
 C          18.792      -1.437      -0.064
 C          16.504     -10.186       0.509
 C          18.074      -2.696      -0.214
 C          15.972       3.661      -0.077
 C          15.776     -11.469       0.425
 C          16.606      -2.652      -0.176
 C          14.514       3.678      -0.095
 C          14.307     -11.450       0.416
 C          13.788       2.408       0.040
 C          13.570     -12.694       0.391
 C          15.879      -3.921      -0.134
 C          14.417      -3.903      -0.168
 C          12.318       2.459      -0.096
 C          12.120     -12.699       0.451
 C          13.682      -5.186      -0.167
 C          11.593       1.203      -0.050
 C          11.380     -13.957       0.608
 C          12.219      -5.127      -0.227
 C          10.110       1.209      -0.170
 C           9.918     -13.889       0.639
 C          20.959      -2.702       0.130
 C          18.682     -11.544       0.451
 C          20.250      -3.966       0.079
 C          18.134       2.381      -0.016
 C          17.931     -12.771       0.530
 C          18.768      -3.956      -0.122
 C          16.662       2.365       0.084
 C          16.482     -12.722       0.412
 C          18.053      -5.206      -0.110
 C          15.937       1.107       0.257
 C          15.733     -13.958       0.471
 C          16.583      -5.219      -0.108
 C          14.473       1.121       0.234
 C          14.289     -13.950       0.457
 C          15.833      -6.441       0.060
 C          13.737      -0.133       0.159
 C          13.531     -15.195       0.558
 C          14.387      -6.424       0.032
 C          12.287      -0.097       0.054
 C          12.090     -15.172       0.649
 C          20.923      -5.254       0.222
 C          18.826       1.107       0.055
 C          18.639     -14.043       0.701
 C          20.197      -6.510       0.153
 C          18.100      -0.163       0.136
 C          17.895     -15.246       0.716
 C          18.721      -6.462       0.146
 C          16.650      -0.171       0.206
 C          16.461     -15.227       0.574
 C          18.000      -7.698       0.396
 C          15.677     -16.461       0.624
 C          16.547      -7.654       0.472
 C          14.281     -16.448       0.612
 C          20.912      -7.775       0.224
 C          20.192      -9.012       0.347
 C          18.698      -8.992       0.393
 C          20.873     -10.296       0.473
 C          20.159     -11.522       0.587
 C          11.499      -6.370       0.006
 C          21.034       2.359       0.019
 C          20.831     -12.839       0.640
 C          20.318       1.076      -0.008
 C          20.094     -14.010       0.752
 C          21.017      -0.184      -0.051
 C          10.026      -6.388      -0.055
 C          10.047      -3.840      -0.131
 C          10.084      -1.300      -0.230
 C           9.365      -2.555      -0.113
 C           9.334      -5.107      -0.028
 C           9.277      -7.635      -0.010
 C           9.380      -0.032      -0.273
