   142
 frame     69
 H          22.172       4.851      -0.067
 H          20.938       7.032      -0.099
 H          18.753       8.311      -0.074
 H          14.063       9.635      -0.055
 H          16.571       9.603      -0.037
 H           9.637       7.173      -0.196
 H           8.348       5.026      -0.217
 H          11.850       8.399      -0.126
 H           8.142     -10.125       0.251
 H           8.313       2.496      -0.186
 H           8.113     -12.652       0.384
 H           9.346     -14.828       0.525
 H          11.529     -16.106       0.629
 H          16.217     -17.428       0.736
 H          13.711     -17.396       0.717
 H          20.647     -14.970       0.637
 H          22.082      -2.727       0.249
 H          22.049      -5.248       0.355
 H          22.011      -7.770       0.426
 H          21.972     -10.296       0.489
 H          22.143       2.322       0.013
 H          21.936     -12.823       0.564
 H          18.431     -16.193       0.686
 H          22.114      -0.204       0.122
 H           8.238      -2.554      -0.062
 H           8.203      -5.077       0.031
 H           8.170      -7.600       0.134
 H           8.273      -0.032      -0.137
 C          18.878       3.582      -0.083
 C          20.363       3.577      -0.030
 C          21.077       4.879      -0.041
 C          16.713       4.859      -0.098
 C          18.177       4.858      -0.056
 C          18.921       6.139      -0.051
 C          20.394       6.081      -0.072
 C          12.343       4.935      -0.126
 C          13.806       4.897      -0.129
 C          14.544       6.159      -0.090
 C          16.005       6.141      -0.074
 C          16.757       7.401      -0.059
 C          18.199       7.364      -0.066
 C          11.629       6.234      -0.122
 C          12.381       7.440      -0.114
 C          13.823       7.439      -0.085
 C          14.608       8.673      -0.065
 C          16.003       8.656      -0.055
 C           9.441       5.033      -0.170
 C          10.157       6.213      -0.168
 C          13.643      -7.624       0.194
 C          12.195      -7.574       0.368
 C          11.435      -8.844       0.395
 C           9.969      -8.848       0.230
 C          11.551      -1.344      -0.010
 C           9.260     -10.124       0.234
 C          15.791      -8.868       0.563
 C          14.340      -8.847       0.540
 C          15.920      -1.362      -0.457
 C          13.603     -10.112       0.491
 C          14.453      -1.346      -0.462
 C          12.148     -10.114       0.335
 C          13.685      -2.645      -0.482
 C          11.607       3.677      -0.179
 C          11.409     -11.380       0.342
 C          12.231      -2.608      -0.308
 C          10.123       3.712      -0.168
 C           9.929     -11.371       0.354
 C          11.532      -3.864      -0.167
 C           9.436       2.467      -0.207
 C           9.215     -12.671       0.429
 C          20.274      -1.448       0.259
 C          17.963     -10.187       0.439
 C          18.800      -1.436       0.144
 C          16.501     -10.148       0.541
 C          18.100      -2.681      -0.191
 C          15.971       3.583      -0.085
 C          15.771     -11.402       0.450
 C          16.659      -2.677      -0.419
 C          14.510       3.603      -0.096
 C          14.312     -11.381       0.426
 C          13.770       2.359       0.030
 C          13.574     -12.652       0.460
 C          15.909      -3.930      -0.301
 C          14.378      -3.905      -0.320
 C          12.316       2.393      -0.112
 C          12.115     -12.645       0.467
 C          13.655      -5.170      -0.397
 C          11.577       1.149       0.023
 C          11.372     -13.920       0.537
 C          12.201      -5.154      -0.212
 C          10.115       1.176      -0.130
 C           9.898     -13.872       0.495
 C          20.979      -2.701       0.389
 C          18.675     -11.468       0.455
 C          20.239      -3.954       0.339
 C          18.127       2.316      -0.040
 C          17.938     -12.715       0.544
 C          18.762      -3.957       0.003
 C          16.671       2.323       0.069
 C          16.480     -12.690       0.499
 C          18.062      -5.220      -0.071
 C          15.924       1.067       0.192
 C          15.740     -13.945       0.578
 C          16.619      -5.204      -0.336
 C          14.473       1.085       0.151
 C          14.280     -13.927       0.562
 C          15.853      -6.495      -0.250
 C          13.750      -0.141      -0.083
 C          13.530     -15.185       0.621
 C          14.378      -6.477      -0.290
 C          12.296      -0.133       0.079
 C          12.088     -15.151       0.596
 C          20.957      -5.223       0.503
 C          18.835       1.060       0.132
 C          18.644     -14.010       0.618
 C          20.222      -6.457       0.455
 C          18.085      -0.200       0.205
 C          17.897     -15.223       0.651
 C          18.738      -6.446       0.326
 C          16.632      -0.180      -0.030
 C          16.455     -15.221       0.648
 C          17.986      -7.649       0.475
 C          15.674     -16.461       0.691
 C          16.536      -7.658       0.248
 C          14.278     -16.443       0.680
 C          20.899      -7.735       0.469
 C          20.180      -8.974       0.430
 C          18.706      -8.940       0.534
 C          20.857     -10.263       0.435
 C          20.150     -11.491       0.510
 C          11.472      -6.356       0.183
 C          21.022       2.318      -0.033
 C          20.831     -12.809       0.582
 C          20.302       1.045       0.028
 C          20.120     -13.996       0.612
 C          20.997      -0.198       0.150
 C           9.993      -6.331       0.241
 C          10.052      -3.831       0.118
 C          10.073      -1.322       0.058
 C           9.331      -2.557       0.164
 C           9.288      -5.074       0.255
 C           9.283      -7.587       0.222
 C           9.388      -0.054      -0.050
