   142
 frame    711
 H          22.172       4.851      -0.067
 H          20.938       7.032      -0.099
 H          18.753       8.311      -0.074
 H          14.063       9.635      -0.055
 H          16.571       9.603      -0.037
 H           9.637       7.173      -0.196
 H           8.348       5.026      -0.217
 H          11.850       8.399      -0.126
 H           8.142     -10.125       0.251
 H           8.313       2.496      -0.186
 H           8.113     -12.652       0.384
 H           9.346     -14.828       0.525
 H          11.529     -16.106       0.629
 H          16.217     -17.428       0.736
 H          13.711     -17.396       0.717
 H          20.647     -14.970       0.637
 H          22.082      -2.727       0.249
 H          22.049      -5.248       0.355
 H          22.011      -7.770       0.426
 H          21.972     -10.296       0.489
 H          22.143       2.322       0.013
 H          21.936     -12.823       0.564
 H          18.431     -16.193       0.686
 H          22.114      -0.204       0.122
 H           8.238      -2.554      -0.062
 H           8.203      -5.077       0.031
 H           8.170      -7.600       0.134
 H           8.273      -0.032      -0.137
 C          18.870       3.623       0.426
 C          20.368       3.590       0.384
 C          21.085       4.889       0.180
 C          16.694       4.864       0.513
 C          18.146       4.848       0.633
 C          18.901       6.112       0.430
 C          20.384       6.073       0.149
 C          12.351       4.924       0.574
 C          13.812       4.902       0.499
 C          14.542       6.176       0.376
 C          15.998       6.158       0.395
 C          16.755       7.419       0.318
 C          18.230       7.360       0.277
 C          11.633       6.196       0.354
 C          12.347       7.436       0.222
 C          13.815       7.455       0.300
 C          14.603       8.700       0.224
 C          16.012       8.684       0.232
 C           9.425       5.031       0.062
 C          10.158       6.197       0.047
 C          13.659      -7.685       0.502
 C          12.192      -7.667       0.475
 C          11.432      -8.917       0.394
 C           9.964      -8.878       0.350
 C          11.566      -1.323       0.147
 C           9.217     -10.173       0.483
 C          15.789      -8.956       0.588
 C          14.358      -8.942       0.553
 C          15.893      -1.365       0.246
 C          13.598     -10.172       0.562
 C          14.452      -1.349       0.213
 C          12.127     -10.198       0.505
 C          13.693      -2.620       0.149
 C          11.594       3.711       0.327
 C          11.397     -11.403       0.850
 C          12.236      -2.596       0.183
 C          10.103       3.725       0.269
 C           9.909     -11.374       0.774
 C          11.487      -3.856       0.109
 C           9.388       2.519       0.053
 C           9.187     -12.672       0.658
 C          20.267      -1.426       0.205
 C          17.983     -10.276       0.606
 C          18.783      -1.406       0.290
 C          16.518     -10.209       0.613
 C          18.072      -2.669       0.308
 C          15.969       3.633       0.270
 C          15.772     -11.437       0.782
 C          16.620      -2.654       0.219
 C          14.507       3.652       0.249
 C          14.310     -11.423       0.760
 C          13.763       2.418       0.107
 C          13.585     -12.635       1.074
 C          15.878      -3.910       0.200
 C          14.396      -3.893       0.159
 C          12.300       2.476       0.054
 C          12.124     -12.621       1.167
 C          13.659      -5.148       0.238
 C          11.562       1.195       0.030
 C          11.370     -13.887       1.011
 C          12.202      -5.122       0.270
 C          10.086       1.200      -0.015
 C           9.875     -13.858       0.707
 C          20.976      -2.692       0.300
 C          18.665     -11.496       0.972
 C          20.268      -3.961       0.411
 C          18.157       2.399       0.133
 C          17.902     -12.698       1.247
 C          18.790      -3.943       0.282
 C          16.694       2.384       0.150
 C          16.448     -12.679       1.105
 C          18.037      -5.194       0.416
 C          15.928       1.154       0.189
 C          15.730     -13.949       1.003
 C          16.591      -5.181       0.316
 C          14.492       1.171       0.159
 C          14.276     -13.926       0.987
 C          15.832      -6.433       0.435
 C          13.770      -0.057       0.201
 C          13.520     -15.192       0.991
 C          14.376      -6.416       0.392
 C          12.288      -0.054       0.201
 C          12.059     -15.138       0.922
 C          20.930      -5.252       0.416
 C          18.861       1.112       0.144
 C          18.635     -13.976       1.092
 C          20.187      -6.506       0.430
 C          18.086      -0.129       0.298
 C          17.926     -15.218       0.980
 C          18.707      -6.481       0.512
 C          16.616      -0.096       0.272
 C          16.457     -15.234       1.006
 C          17.988      -7.735       0.616
 C          15.680     -16.481       0.968
 C          16.518      -7.718       0.576
 C          14.273     -16.461       0.950
 C          20.895      -7.775       0.356
 C          20.185      -9.008       0.543
 C          18.718      -9.003       0.535
 C          20.889     -10.319       0.696
 C          20.165     -11.501       0.955
 C          11.501      -6.393       0.331
 C          21.053       2.374       0.206
 C          20.860     -12.824       0.803
 C          20.322       1.071       0.152
 C          20.132     -13.987       0.821
 C          21.000      -0.182       0.034
 C          10.028      -6.384       0.194
 C          10.010      -3.834       0.181
 C          10.092      -1.301      -0.002
 C           9.350      -2.555       0.044
 C           9.323      -5.113       0.151
 C           9.293      -7.633       0.105
 C           9.385      -0.041      -0.193
