   142
 frame    581
 H          22.172       4.851      -0.067
 H          20.938       7.032      -0.099
 H          18.753       8.311      -0.074
 H          14.063       9.635      -0.055
 H          16.571       9.603      -0.037
 H           9.637       7.173      -0.196
 H           8.348       5.026      -0.217
 H          11.850       8.399      -0.126
 H           8.142     -10.125       0.251
 H           8.313       2.496      -0.186
 H           8.113     -12.652       0.384
 H           9.346     -14.828       0.525
 H          11.529     -16.106       0.629
 H          16.217     -17.428       0.736
 H          13.711     -17.396       0.717
 H          20.647     -14.970       0.637
 H          22.082      -2.727       0.249
 H          22.049      -5.248       0.355
 H          22.011      -7.770       0.426
 H          21.972     -10.296       0.489
 H          22.143       2.322       0.013
 H          21.936     -12.823       0.564
 H          18.431     -16.193       0.686
 H          22.114      -0.204       0.122
 H           8.238      -2.554      -0.062
 H           8.203      -5.077       0.031
 H           8.170      -7.600       0.134
 H           8.273      -0.032      -0.137
 C          18.887       3.631      -0.029
 C          20.351       3.622       0.044
 C          21.052       4.902       0.036
 C          16.722       4.876      -0.104
 C          18.158       4.871      -0.065
 C          18.882       6.149      -0.022
 C          20.356       6.107       0.037
 C          12.361       4.945      -0.130
 C          13.802       4.916      -0.139
 C          14.543       6.153      -0.114
 C          15.999       6.124      -0.089
 C          16.721       7.392      -0.123
 C          18.159       7.372      -0.041
 C          11.661       6.245      -0.086
 C          12.424       7.447      -0.092
 C          13.862       7.436      -0.168
 C          14.622       8.692      -0.169
 C          15.998       8.668      -0.146
 C           9.464       5.051      -0.092
 C          10.193       6.233      -0.047
 C          13.641      -7.636       0.415
 C          12.190      -7.634       0.297
 C          11.454      -8.913       0.294
 C           9.975      -8.886       0.143
 C          11.572      -1.353      -0.179
 C           9.257     -10.148       0.243
 C          15.788      -8.895       0.610
 C          14.358      -8.873       0.588
 C          15.912      -1.387      -0.063
 C          13.629     -10.167       0.477
 C          14.443      -1.369      -0.087
 C          12.152     -10.178       0.371
 C          13.716      -2.630      -0.264
 C          11.598       3.728      -0.127
 C          11.400     -11.432       0.364
 C          12.265      -2.618      -0.273
 C          10.132       3.747      -0.088
 C           9.931     -11.398       0.426
 C          11.546      -3.863      -0.285
 C           9.433       2.505      -0.175
 C           9.232     -12.688       0.499
 C          20.264      -1.437       0.013
 C          17.964     -10.249       0.456
 C          18.792      -1.441      -0.062
 C          16.482     -10.205       0.535
 C          18.063      -2.699      -0.162
 C          15.961       3.658      -0.031
 C          15.763     -11.463       0.470
 C          16.611      -2.665      -0.188
 C          14.520       3.679      -0.052
 C          14.317     -11.444       0.455
 C          13.800       2.423       0.061
 C          13.558     -12.673       0.434
 C          15.874      -3.932      -0.238
 C          14.422      -3.904      -0.270
 C          12.320       2.457      -0.036
 C          12.122     -12.667       0.435
 C          13.681      -5.170      -0.173
 C          11.594       1.204      -0.045
 C          11.397     -13.940       0.564
 C          12.230      -5.124      -0.173
 C          10.117       1.217      -0.177
 C           9.932     -13.889       0.611
 C          20.967      -2.713       0.092
 C          18.694     -11.519       0.471
 C          20.252      -3.967       0.048
 C          18.128       2.386       0.041
 C          17.931     -12.736       0.516
 C          18.761      -3.958      -0.142
 C          16.643       2.388       0.103
 C          16.496     -12.708       0.454
 C          18.034      -5.199      -0.065
 C          15.914       1.086       0.268
 C          15.749     -13.935       0.553
 C          16.582      -5.205      -0.112
 C          14.497       1.110       0.247
 C          14.277     -13.925       0.538
 C          15.840      -6.446       0.118
 C          13.744      -0.118       0.159
 C          13.559     -15.200       0.559
 C          14.385      -6.429       0.087
 C          12.296      -0.086       0.043
 C          12.124     -15.167       0.611
 C          20.932      -5.242       0.193
 C          18.833       1.109       0.067
 C          18.616     -14.027       0.657
 C          20.198      -6.496       0.197
 C          18.088      -0.153       0.127
 C          17.869     -15.238       0.679
 C          18.724      -6.460       0.146
 C          16.641      -0.153       0.210
 C          16.429     -15.225       0.574
 C          17.983      -7.707       0.392
 C          15.668     -16.473       0.618
 C          16.538      -7.670       0.474
 C          14.291     -16.468       0.606
 C          20.895      -7.774       0.225
 C          20.187      -9.019       0.332
 C          18.696      -9.005       0.407
 C          20.857     -10.293       0.443
 C          20.152     -11.522       0.582
 C          11.500      -6.369      -0.001
 C          21.020       2.360      -0.010
 C          20.817     -12.838       0.659
 C          20.312       1.088      -0.022
 C          20.088     -14.017       0.727
 C          20.990      -0.184      -0.054
 C          10.024      -6.374      -0.003
 C          10.049      -3.841      -0.162
 C          10.092      -1.307      -0.183
 C           9.361      -2.569      -0.144
 C           9.326      -5.098      -0.062
 C           9.298      -7.633      -0.009
 C           9.403      -0.028      -0.276
