   142
 frame    302
 H          22.172       4.851      -0.067
 H          20.938       7.032      -0.099
 H          18.753       8.311      -0.074
 H          14.063       9.635      -0.055
 H          16.571       9.603      -0.037
 H           9.637       7.173      -0.196
 H           8.348       5.026      -0.217
 H          11.850       8.399      -0.126
 H           8.142     -10.125       0.251
 H           8.313       2.496      -0.186
 H           8.113     -12.652       0.384
 H           9.346     -14.828       0.525
 H          11.529     -16.106       0.629
 H          16.217     -17.428       0.736
 H          13.711     -17.396       0.717
 H          20.647     -14.970       0.637
 H          22.082      -2.727       0.249
 H          22.049      -5.248       0.355
 H          22.011      -7.770       0.426
 H          21.972     -10.296       0.489
 H          22.143       2.322       0.013
 H          21.936     -12.823       0.564
 H          18.431     -16.193       0.686
 H          22.114      -0.204       0.122
 H           8.238      -2.554      -0.062
 H           8.203      -5.077       0.031
 H           8.170      -7.600       0.134
 H           8.273      -0.032      -0.137
 C          18.898       3.585      -0.272
 C          20.365       3.542      -0.108
 C          21.057       4.855      -0.006
 C          16.733       4.887      -0.542
 C          18.171       4.860      -0.345
 C          18.911       6.142      -0.188
 C          20.384       6.068      -0.046
 C          12.350       4.932      -0.420
 C          13.794       4.921      -0.583
 C          14.552       6.157      -0.468
 C          16.005       6.148      -0.461
 C          16.755       7.404      -0.303
 C          18.203       7.376      -0.150
 C          11.641       6.231      -0.236
 C          12.376       7.448      -0.197
 C          13.830       7.432      -0.314
 C          14.607       8.681      -0.271
 C          16.004       8.669      -0.252
 C           9.465       4.993      -0.145
 C          10.162       6.194      -0.159
 C          13.639      -7.642      -0.219
 C          12.178      -7.647      -0.200
 C          11.436      -8.903      -0.114
 C           9.955      -8.867       0.020
 C          11.525      -1.354      -0.420
 C           9.219     -10.115       0.136
 C          15.810      -8.952      -0.118
 C          14.347      -8.931      -0.157
 C          15.924      -1.454      -0.513
 C          13.586     -10.191      -0.204
 C          14.439      -1.435      -0.542
 C          12.119     -10.167      -0.054
 C          13.705      -2.694      -0.676
 C          11.594       3.675      -0.365
 C          11.394     -11.400       0.123
 C          12.248      -2.629      -0.394
 C          10.127       3.672      -0.243
 C           9.928     -11.350       0.263
 C          11.484      -3.869      -0.316
 C           9.394       2.449      -0.280
 C           9.223     -12.649       0.457
 C          20.323      -1.461      -0.032
 C          18.004     -10.240       0.053
 C          18.843      -1.444      -0.248
 C          16.542     -10.222      -0.145
 C          18.085      -2.698      -0.262
 C          16.002       3.607      -0.714
 C          15.799     -11.474      -0.250
 C          16.641      -2.727      -0.604
 C          14.502       3.624      -0.738
 C          14.306     -11.450      -0.275
 C          13.753       2.384      -0.587
 C          13.563     -12.714      -0.026
 C          15.900      -3.931      -0.801
 C          14.432      -3.915      -0.824
 C          12.284       2.409      -0.453
 C          12.116     -12.675       0.127
 C          13.676      -5.115      -0.583
 C          11.578       1.157      -0.450
 C          11.375     -13.940       0.363
 C          12.217      -5.134      -0.310
 C          10.098       1.173      -0.301
 C           9.896     -13.863       0.516
 C          20.991      -2.715       0.094
 C          18.695     -11.497       0.231
 C          20.279      -3.974       0.080
 C          18.179       2.336      -0.374
 C          17.941     -12.751       0.204
 C          18.816      -3.963      -0.137
 C          16.710       2.346      -0.545
 C          16.502     -12.755      -0.001
 C          18.051      -5.209      -0.171
 C          15.945       1.097      -0.457
 C          15.739     -13.989       0.135
 C          16.608      -5.152      -0.515
 C          14.483       1.112      -0.469
 C          14.287     -13.964       0.125
 C          15.856      -6.402      -0.349
 C          13.742      -0.156      -0.454
 C          13.542     -15.215       0.363
 C          14.376      -6.378      -0.372
 C          12.278      -0.124      -0.443
 C          12.092     -15.176       0.484
 C          20.955      -5.247       0.197
 C          18.848       1.070      -0.305
 C          18.644     -14.031       0.462
 C          20.250      -6.491       0.154
 C          18.114      -0.191      -0.320
 C          17.895     -15.250       0.544
 C          18.772      -6.480      -0.073
 C          16.657      -0.196      -0.396
 C          16.449     -15.253       0.384
 C          18.017      -7.714      -0.065
 C          15.673     -16.502       0.458
 C          16.548      -7.668      -0.147
 C          14.281     -16.480       0.459
 C          20.909      -7.764       0.256
 C          20.203      -8.995       0.232
 C          18.722      -8.991       0.035
 C          20.898     -10.255       0.346
 C          20.163     -11.475       0.428
 C          11.453      -6.389      -0.255
 C          21.063       2.300      -0.105
 C          20.829     -12.796       0.612
 C          20.329       1.048      -0.133
 C          20.127     -13.992       0.630
 C          21.013      -0.190      -0.025
 C           9.979      -6.363      -0.074
 C          10.019      -3.849      -0.150
 C          10.044      -1.331      -0.234
 C           9.337      -2.570      -0.160
 C           9.302      -5.101      -0.070
 C           9.275      -7.620       0.012
 C           9.375      -0.046      -0.231
