   142
 frame    342
 H          22.172       4.851      -0.067
 H          20.938       7.032      -0.099
 H          18.753       8.311      -0.074
 H          14.063       9.635      -0.055
 H          16.571       9.603      -0.037
 H           9.637       7.173      -0.196
 H           8.348       5.026      -0.217
 H          11.850       8.399      -0.126
 H           8.142     -10.125       0.251
 H           8.313       2.496      -0.186
 H           8.113     -12.652       0.384
 H           9.346     -14.828       0.525
 H          11.529     -16.106       0.629
 H          16.217     -17.428       0.736
 H          13.711     -17.396       0.717
 H          20.647     -14.970       0.637
 H          22.082      -2.727       0.249
 H          22.049      -5.248       0.355
 H          22.011      -7.770       0.426
 H          21.972     -10.296       0.489
 H          22.143       2.322       0.013
 H          21.936     -12.823       0.564
 H          18.431     -16.193       0.686
 H          22.114      -0.204       0.122
 H           8.238      -2.554      -0.062
 H           8.203      -5.077       0.031
 H           8.170      -7.600       0.134
 H           8.273      -0.032      -0.137
 C          18.890       3.618      -0.277
 C          20.352       3.592      -0.059
 C          21.056       4.868      -0.102
 C          16.739       4.914      -0.682
 C          18.207       4.893      -0.395
 C          18.938       6.168      -0.278
 C          20.388       6.084      -0.143
 C          12.313       4.974      -0.470
 C          13.786       4.952      -0.710
 C          14.541       6.231      -0.775
 C          16.026       6.214      -0.761
 C          16.803       7.453      -0.534
 C          18.215       7.394      -0.354
 C          11.615       6.265      -0.345
 C          12.373       7.472      -0.419
 C          13.794       7.489      -0.556
 C          14.604       8.670      -0.274
 C          16.014       8.648      -0.251
 C           9.456       5.012      -0.210
 C          10.157       6.208      -0.231
 C          13.629      -7.669      -0.239
 C          12.154      -7.650      -0.105
 C          11.412      -8.923      -0.131
 C           9.957      -8.896       0.028
 C          11.514      -1.355      -0.417
 C           9.262     -10.140       0.262
 C          15.828      -8.964      -0.240
 C          14.338      -8.948      -0.269
 C          15.908      -1.429      -0.392
 C          13.606     -10.223      -0.229
 C          14.458      -1.416      -0.425
 C          12.142     -10.190      -0.129
 C          13.722      -2.637      -0.399
 C          11.600       3.711      -0.376
 C          11.400     -11.444       0.090
 C          12.256      -2.627      -0.452
 C          10.141       3.718      -0.187
 C           9.940     -11.394       0.287
 C          11.531      -3.875      -0.495
 C           9.432       2.479      -0.175
 C           9.227     -12.668       0.340
 C          20.339      -1.425      -0.161
 C          17.987     -10.264      -0.017
 C          18.850      -1.447      -0.264
 C          16.523     -10.255      -0.180
 C          18.067      -2.699      -0.331
 C          15.987       3.659      -0.695
 C          15.783     -11.514      -0.226
 C          16.606      -2.673      -0.324
 C          14.510       3.679      -0.708
 C          14.308     -11.496      -0.254
 C          13.778       2.427      -0.626
 C          13.555     -12.752      -0.172
 C          15.885      -3.932      -0.119
 C          14.407      -3.913      -0.159
 C          12.314       2.433      -0.523
 C          12.087     -12.721       0.077
 C          13.683      -5.170      -0.331
 C          11.555       1.183      -0.452
 C          11.339     -13.979       0.282
 C          12.224      -5.139      -0.374
 C          10.095       1.210      -0.310
 C           9.890     -13.884       0.408
 C          20.979      -2.721       0.026
 C          18.689     -11.534       0.214
 C          20.269      -3.980      -0.062
 C          18.150       2.359      -0.427
 C          17.969     -12.796       0.159
 C          18.769      -3.966      -0.330
 C          16.686       2.384      -0.558
 C          16.509     -12.787      -0.134
 C          18.038      -5.210      -0.239
 C          15.961       1.096      -0.553
 C          15.756     -14.067      -0.168
 C          16.576      -5.205      -0.238
 C          14.473       1.117      -0.592
 C          14.274     -14.050      -0.191
 C          15.844      -6.434      -0.219
 C          13.736      -0.141      -0.486
 C          13.499     -15.274       0.112
 C          14.388      -6.419      -0.255
 C          12.258      -0.106      -0.334
 C          12.069     -15.199       0.277
 C          20.956      -5.244       0.118
 C          18.879       1.093      -0.323
 C          18.683     -14.068       0.356
 C          20.271      -6.521       0.018
 C          18.135      -0.175      -0.235
 C          17.924     -15.276       0.325
 C          18.789      -6.467      -0.090
 C          16.665      -0.181      -0.415
 C          16.495     -15.313       0.149
 C          18.041      -7.726       0.019
 C          15.686     -16.484       0.470
 C          16.571      -7.696      -0.166
 C          14.277     -16.464       0.465
 C          20.932      -7.806       0.195
 C          20.205      -9.022       0.232
 C          18.745      -9.008       0.014
 C          20.851     -10.297       0.459
 C          20.146     -11.528       0.450
 C          11.444      -6.383      -0.260
 C          21.021       2.341       0.006
 C          20.816     -12.812       0.497
 C          20.330       1.084      -0.146
 C          20.129     -14.012       0.521
 C          21.029      -0.153      -0.099
 C           9.953      -6.400      -0.210
 C          10.034      -3.851      -0.289
 C          10.030      -1.292      -0.377
 C           9.346      -2.574      -0.239
 C           9.308      -5.103      -0.157
 C           9.253      -7.667      -0.061
 C           9.363      -0.004      -0.333
