   142
 frame    800
 H          22.172       4.851      -0.067
 H          20.938       7.032      -0.099
 H          18.753       8.311      -0.074
 H          14.063       9.635      -0.055
 H          16.571       9.603      -0.037
 H           9.637       7.173      -0.196
 H           8.348       5.026      -0.217
 H          11.850       8.399      -0.126
 H           8.142     -10.125       0.251
 H           8.313       2.496      -0.186
 H           8.113     -12.652       0.384
 H           9.346     -14.828       0.525
 H          11.529     -16.106       0.629
 H          16.217     -17.428       0.736
 H          13.711     -17.396       0.717
 H          20.647     -14.970       0.637
 H          22.082      -2.727       0.249
 H          22.049      -5.248       0.355
 H          22.011      -7.770       0.426
 H          21.972     -10.296       0.489
 H          22.143       2.322       0.013
 H          21.936     -12.823       0.564
 H          18.431     -16.193       0.686
 H          22.114      -0.204       0.122
 H           8.238      -2.554      -0.062
 H           8.203      -5.077       0.031
 H           8.170      -7.600       0.134
 H           8.273      -0.032      -0.137
 C          18.933       3.632       0.209
 C          20.388       3.609       0.103
 C          21.065       4.911      -0.077
 C          16.744       4.898       0.284
 C          18.199       4.881       0.077
 C          18.908       6.161      -0.053
 C          20.367       6.108      -0.098
 C          12.315       4.956       0.009
 C          13.765       4.938       0.272
 C          14.530       6.150       0.202
 C          16.025       6.137       0.227
 C          16.759       7.376       0.034
 C          18.175       7.386      -0.044
 C          11.639       6.252      -0.130
 C          12.403       7.463      -0.095
 C          13.819       7.412       0.008
 C          14.616       8.656      -0.022
 C          15.995       8.638      -0.007
 C           9.456       5.063      -0.222
 C          10.184       6.238      -0.200
 C          13.604      -7.618       0.937
 C          12.136      -7.606       0.730
 C          11.398      -8.891       0.599
 C           9.972      -8.877       0.340
 C          11.551      -1.358       0.311
 C           9.246     -10.138       0.341
 C          15.792      -8.910       1.002
 C          14.331      -8.880       0.960
 C          15.899      -1.364       0.689
 C          13.589     -10.155       0.948
 C          14.433      -1.349       0.651
 C          12.108     -10.150       0.718
 C          13.713      -2.588       0.450
 C          11.555       3.724       0.105
 C          11.363     -11.416       0.625
 C          12.256      -2.602       0.436
 C          10.098       3.752      -0.029
 C           9.901     -11.408       0.478
 C          11.506      -3.849       0.387
 C           9.407       2.482      -0.089
 C           9.222     -12.720       0.374
 C          20.291      -1.444       0.329
 C          17.997     -10.224       0.826
 C          18.795      -1.442       0.464
 C          16.514     -10.196       0.996
 C          18.050      -2.676       0.557
 C          15.975       3.669       0.476
 C          15.776     -11.455       1.014
 C          16.594      -2.632       0.515
 C          14.506       3.689       0.458
 C          14.303     -11.438       0.992
 C          13.756       2.428       0.498
 C          13.532     -12.674       0.865
 C          15.872      -3.903       0.447
 C          14.417      -3.886       0.398
 C          12.270       2.444       0.284
 C          12.083     -12.671       0.601
 C          13.687      -5.145       0.554
 C          11.533       1.191       0.254
 C          11.382     -13.964       0.538
 C          12.224      -5.097       0.518
 C          10.098       1.212      -0.011
 C           9.926     -13.910       0.468
 C          20.974      -2.722       0.311
 C          18.721     -11.508       0.753
 C          20.239      -3.964       0.455
 C          18.180       2.373       0.372
 C          17.963     -12.740       0.683
 C          18.767      -3.937       0.554
 C          16.687       2.388       0.533
 C          16.507     -12.712       0.905
 C          18.019      -5.171       0.662
 C          15.930       1.127       0.603
 C          15.754     -13.944       0.872
 C          16.548      -5.178       0.624
 C          14.471       1.140       0.576
 C          14.264     -13.921       0.860
 C          15.829      -6.403       0.888
 C          13.703      -0.099       0.645
 C          13.523     -15.174       0.720
 C          14.367      -6.387       0.851
 C          12.234      -0.088       0.449
 C          12.104     -15.184       0.621
 C          20.934      -5.230       0.422
 C          18.875       1.104       0.381
 C          18.629     -14.051       0.618
 C          20.220      -6.481       0.548
 C          18.130      -0.164       0.554
 C          17.879     -15.264       0.678
 C          18.724      -6.432       0.671
 C          16.659      -0.140       0.701
 C          16.456     -15.215       0.746
 C          18.027      -7.684       0.858
 C          15.666     -16.453       0.747
 C          16.553      -7.658       0.995
 C          14.286     -16.437       0.729
 C          20.895      -7.762       0.473
 C          20.184      -9.005       0.544
 C          18.733      -8.978       0.742
 C          20.873     -10.279       0.558
 C          20.180     -11.534       0.660
 C          11.488      -6.337       0.506
 C          21.038       2.330       0.087
 C          20.828     -12.860       0.522
 C          20.313       1.075       0.181
 C          20.090     -14.031       0.592
 C          20.996      -0.187       0.182
 C          10.000      -6.356       0.315
 C          10.041      -3.836       0.222
 C          10.062      -1.320       0.095
 C           9.343      -2.581       0.045
 C           9.311      -5.085       0.143
 C           9.291      -7.621       0.219
 C           9.391      -0.044      -0.073
