   142
 frame    704
 H          22.172       4.851      -0.067
 H          20.938       7.032      -0.099
 H          18.753       8.311      -0.074
 H          14.063       9.635      -0.055
 H          16.571       9.603      -0.037
 H           9.637       7.173      -0.196
 H           8.348       5.026      -0.217
 H          11.850       8.399      -0.126
 H           8.142     -10.125       0.251
 H           8.313       2.496      -0.186
 H           8.113     -12.652       0.384
 H           9.346     -14.828       0.525
 H          11.529     -16.106       0.629
 H          16.217     -17.428       0.736
 H          13.711     -17.396       0.717
 H          20.647     -14.970       0.637
 H          22.082      -2.727       0.249
 H          22.049      -5.248       0.355
 H          22.011      -7.770       0.426
 H          21.972     -10.296       0.489
 H          22.143       2.322       0.013
 H          21.936     -12.823       0.564
 H          18.431     -16.193       0.686
 H          22.114      -0.204       0.122
 H           8.238      -2.554      -0.062
 H           8.203      -5.077       0.031
 H           8.170      -7.600       0.134
 H           8.273      -0.032      -0.137
 C          18.881       3.612       0.428
 C          20.378       3.600       0.415
 C          21.076       4.869       0.181
 C          16.730       4.902       0.513
 C          18.184       4.862       0.630
 C          18.924       6.130       0.407
 C          20.370       6.072       0.131
 C          12.312       4.931       0.566
 C          13.775       4.941       0.489
 C          14.531       6.180       0.376
 C          16.009       6.165       0.385
 C          16.747       7.431       0.311
 C          18.197       7.375       0.236
 C          11.615       6.219       0.331
 C          12.381       7.446       0.181
 C          13.822       7.469       0.291
 C          14.612       8.730       0.263
 C          16.002       8.711       0.262
 C           9.432       5.018       0.066
 C          10.172       6.196       0.034
 C          13.659      -7.682       0.515
 C          12.194      -7.662       0.456
 C          11.469      -8.908       0.360
 C           9.961      -8.892       0.295
 C          11.535      -1.333       0.151
 C           9.241     -10.165       0.463
 C          15.809      -8.991       0.581
 C          14.345      -8.975       0.559
 C          15.905      -1.397       0.243
 C          13.580     -10.213       0.519
 C          14.437      -1.380       0.216
 C          12.142     -10.190       0.514
 C          13.687      -2.620       0.092
 C          11.590       3.707       0.343
 C          11.389     -11.392       0.858
 C          12.211      -2.610       0.175
 C          10.092       3.730       0.294
 C           9.892     -11.380       0.804
 C          11.469      -3.856       0.146
 C           9.406       2.515       0.026
 C           9.195     -12.659       0.651
 C          20.288      -1.441       0.182
 C          17.971     -10.256       0.601
 C          18.816      -1.415       0.307
 C          16.535     -10.246       0.571
 C          18.097      -2.676       0.301
 C          15.989       3.659       0.265
 C          15.777     -11.469       0.790
 C          16.621      -2.657       0.158
 C          14.490       3.676       0.258
 C          14.300     -11.449       0.765
 C          13.739       2.452       0.056
 C          13.548     -12.671       1.064
 C          15.865      -3.918       0.076
 C          14.423      -3.894       0.038
 C          12.305       2.463       0.054
 C          12.082     -12.621       1.157
 C          13.650      -5.137       0.186
 C          11.606       1.193       0.006
 C          11.340     -13.910       0.989
 C          12.171      -5.122       0.251
 C          10.094       1.211      -0.067
 C           9.901     -13.860       0.700
 C          20.981      -2.688       0.279
 C          18.682     -11.486       0.987
 C          20.276      -3.962       0.352
 C          18.148       2.394       0.132
 C          17.946     -12.705       1.234
 C          18.817      -3.944       0.318
 C          16.712       2.416       0.100
 C          16.489     -12.710       1.096
 C          18.069      -5.194       0.400
 C          15.945       1.185       0.185
 C          15.736     -13.957       1.000
 C          16.593      -5.174       0.270
 C          14.488       1.202       0.162
 C          14.274     -13.935       0.988
 C          15.842      -6.406       0.418
 C          13.768      -0.067       0.225
 C          13.533     -15.209       0.978
 C          14.362      -6.391       0.392
 C          12.296      -0.066       0.187
 C          12.083     -15.157       0.879
 C          20.947      -5.261       0.395
 C          18.814       1.099       0.121
 C          18.662     -14.003       1.065
 C          20.218      -6.491       0.420
 C          18.087      -0.139       0.284
 C          17.899     -15.225       0.936
 C          18.739      -6.467       0.525
 C          16.617      -0.108       0.283
 C          16.447     -15.250       0.990
 C          17.985      -7.737       0.601
 C          15.668     -16.510       1.002
 C          16.522      -7.714       0.590
 C          14.273     -16.492       0.984
 C          20.894      -7.774       0.362
 C          20.196      -9.024       0.490
 C          18.682      -8.995       0.508
 C          20.875     -10.313       0.674
 C          20.178     -11.516       0.983
 C          11.470      -6.378       0.350
 C          21.042       2.363       0.187
 C          20.847     -12.809       0.800
 C          20.321       1.083       0.107
 C          20.115     -13.993       0.817
 C          21.001      -0.182       0.041
 C           9.994      -6.369       0.183
 C          10.007      -3.835       0.120
 C          10.061      -1.316      -0.018
 C           9.332      -2.543       0.020
 C           9.305      -5.122       0.137
 C           9.287      -7.635       0.111
 C           9.387      -0.037      -0.179
