   142
 frame    688
 H          22.172       4.851      -0.067
 H          20.938       7.032      -0.099
 H          18.753       8.311      -0.074
 H          14.063       9.635      -0.055
 H          16.571       9.603      -0.037
 H           9.637       7.173      -0.196
 H           8.348       5.026      -0.217
 H          11.850       8.399      -0.126
 H           8.142     -10.125       0.251
 H           8.313       2.496      -0.186
 H           8.113     -12.652       0.384
 H           9.346     -14.828       0.525
 H          11.529     -16.106       0.629
 H          16.217     -17.428       0.736
 H          13.711     -17.396       0.717
 H          20.647     -14.970       0.637
 H          22.082      -2.727       0.249
 H          22.049      -5.248       0.355
 H          22.011      -7.770       0.426
 H          21.972     -10.296       0.489
 H          22.143       2.322       0.013
 H          21.936     -12.823       0.564
 H          18.431     -16.193       0.686
 H          22.114      -0.204       0.122
 H           8.238      -2.554      -0.062
 H           8.203      -5.077       0.031
 H           8.170      -7.600       0.134
 H           8.273      -0.032      -0.137
 C          18.920       3.625       0.427
 C          20.395       3.560       0.311
 C          21.092       4.897       0.189
 C          16.756       4.958       0.423
 C          18.228       4.927       0.434
 C          18.940       6.214       0.313
 C          20.420       6.108       0.139
 C          12.286       5.001       0.370
 C          13.752       4.994       0.385
 C          14.539       6.231       0.450
 C          15.997       6.214       0.455
 C          16.741       7.451       0.327
 C          18.193       7.407       0.146
 C          11.607       6.302       0.245
 C          12.390       7.483       0.098
 C          13.826       7.487       0.305
 C          14.601       8.704       0.208
 C          15.998       8.687       0.213
 C           9.430       5.043       0.070
 C          10.128       6.237       0.052
 C          13.628      -7.649       0.487
 C          12.150      -7.624       0.334
 C          11.432      -8.895       0.364
 C           9.989      -8.873       0.222
 C          11.510      -1.336       0.100
 C           9.230     -10.132       0.384
 C          15.795      -8.962       0.528
 C          14.350      -8.943       0.504
 C          15.901      -1.396       0.196
 C          13.620     -10.229       0.579
 C          14.450      -1.377       0.176
 C          12.126     -10.175       0.622
 C          13.683      -2.638       0.030
 C          11.554       3.709       0.356
 C          11.351     -11.391       0.871
 C          12.215      -2.602       0.112
 C          10.092       3.689       0.182
 C           9.894     -11.339       0.698
 C          11.475      -3.860       0.210
 C           9.411       2.476      -0.063
 C           9.200     -12.685       0.659
 C          20.322      -1.437       0.183
 C          17.989     -10.260       0.729
 C          18.838      -1.430       0.253
 C          16.499     -10.271       0.619
 C          18.099      -2.684       0.248
 C          15.969       3.743       0.292
 C          15.776     -11.540       0.830
 C          16.648      -2.673       0.089
 C          14.510       3.756       0.282
 C          14.299     -11.526       0.810
 C          13.793       2.476       0.114
 C          13.511     -12.741       0.954
 C          15.905      -3.921      -0.094
 C          14.390      -3.904      -0.130
 C          12.302       2.465       0.173
 C          12.051     -12.701       0.946
 C          13.657      -5.145       0.117
 C          11.570       1.179       0.006
 C          11.353     -13.982       0.907
 C          12.186      -5.127       0.209
 C          10.128       1.196      -0.127
 C           9.866     -13.896       0.720
 C          20.998      -2.721       0.203
 C          18.724     -11.486       0.984
 C          20.280      -3.971       0.268
 C          18.148       2.391       0.246
 C          17.998     -12.774       1.018
 C          18.800      -3.947       0.378
 C          16.659       2.440       0.139
 C          16.535     -12.777       0.991
 C          18.059      -5.197       0.354
 C          15.931       1.141       0.144
 C          15.739     -14.005       1.087
 C          16.604      -5.180       0.190
 C          14.477       1.158       0.131
 C          14.267     -13.991       1.080
 C          15.835      -6.427       0.393
 C          13.728      -0.105       0.228
 C          13.519     -15.230       0.970
 C          14.379      -6.405       0.358
 C          12.249      -0.103       0.057
 C          12.090     -15.188       0.804
 C          20.962      -5.229       0.326
 C          18.855       1.094       0.126
 C          18.659     -14.080       0.981
 C          20.266      -6.499       0.418
 C          18.128      -0.183       0.174
 C          17.887     -15.268       0.844
 C          18.781      -6.463       0.469
 C          16.652      -0.146       0.252
 C          16.449     -15.269       0.999
 C          18.033      -7.689       0.472
 C          15.672     -16.485       0.940
 C          16.547      -7.691       0.544
 C          14.275     -16.470       0.939
 C          20.912      -7.777       0.443
 C          20.164      -8.996       0.439
 C          18.720      -8.981       0.519
 C          20.879     -10.277       0.591
 C          20.187     -11.468       0.857
 C          11.430      -6.376       0.297
 C          21.045       2.329       0.125
 C          20.851     -12.836       0.827
 C          20.298       1.062       0.049
 C          20.145     -14.029       0.840
 C          21.006      -0.173       0.133
 C           9.945      -6.369       0.191
 C           9.997      -3.840       0.032
 C          10.031      -1.299      -0.023
 C           9.330      -2.577      -0.049
 C           9.288      -5.084       0.064
 C           9.272      -7.633       0.197
 C           9.377      -0.019      -0.070
