   142
 frame     82
 H          22.172       4.851      -0.067
 H          20.938       7.032      -0.099
 H          18.753       8.311      -0.074
 H          14.063       9.635      -0.055
 H          16.571       9.603      -0.037
 H           9.637       7.173      -0.196
 H           8.348       5.026      -0.217
 H          11.850       8.399      -0.126
 H           8.142     -10.125       0.251
 H           8.313       2.496      -0.186
 H           8.113     -12.652       0.384
 H           9.346     -14.828       0.525
 H          11.529     -16.106       0.629
 H          16.217     -17.428       0.736
 H          13.711     -17.396       0.717
 H          20.647     -14.970       0.637
 H          22.082      -2.727       0.249
 H          22.049      -5.248       0.355
 H          22.011      -7.770       0.426
 H          21.972     -10.296       0.489
 H          22.143       2.322       0.013
 H          21.936     -12.823       0.564
 H          18.431     -16.193       0.686
 H          22.114      -0.204       0.122
 H           8.238      -2.554      -0.062
 H           8.203      -5.077       0.031
 H           8.170      -7.600       0.134
 H           8.273      -0.032      -0.137
 C          18.864       3.569      -0.093
 C          20.330       3.556      -0.082
 C          21.047       4.856      -0.046
 C          16.711       4.847      -0.110
 C          18.164       4.839      -0.104
 C          18.904       6.118      -0.055
 C          20.380       6.070      -0.051
 C          12.351       4.914      -0.171
 C          13.801       4.886      -0.137
 C          14.545       6.141      -0.114
 C          16.006       6.122      -0.100
 C          16.747       7.388      -0.061
 C          18.190       7.351      -0.051
 C          11.647       6.211      -0.131
 C          12.394       7.426      -0.101
 C          13.835       7.425      -0.087
 C          14.609       8.669      -0.060
 C          16.003       8.649      -0.050
 C           9.474       5.002      -0.180
 C          10.175       6.199      -0.150
 C          13.640      -7.670       0.036
 C          12.167      -7.626       0.181
 C          11.444      -8.842       0.447
 C           9.973      -8.834       0.335
 C          11.521      -1.373      -0.131
 C           9.257     -10.111       0.234
 C          15.803      -8.908       0.431
 C          14.344      -8.893       0.404
 C          15.930      -1.394      -0.499
 C          13.591     -10.127       0.565
 C          14.450      -1.371      -0.543
 C          12.135     -10.104       0.474
 C          13.730      -2.615      -0.404
 C          11.617       3.664      -0.179
 C          11.411     -11.365       0.339
 C          12.223      -2.612      -0.421
 C          10.154       3.684      -0.219
 C           9.941     -11.357       0.297
 C          11.468      -3.873      -0.269
 C           9.428       2.465      -0.206
 C           9.230     -12.653       0.418
 C          20.308      -1.452       0.260
 C          17.968     -10.178       0.575
 C          18.831      -1.463       0.015
 C          16.512     -10.163       0.611
 C          18.115      -2.689      -0.298
 C          15.964       3.597      -0.001
 C          15.764     -11.400       0.535
 C          16.608      -2.655      -0.372
 C          14.508       3.617      -0.020
 C          14.306     -11.383       0.513
 C          13.762       2.386       0.099
 C          13.571     -12.641       0.448
 C          15.875      -3.928      -0.356
 C          14.434      -3.917      -0.395
 C          12.308       2.396       0.020
 C          12.115     -12.636       0.416
 C          13.693      -5.186      -0.323
 C          11.590       1.149       0.074
 C          11.378     -13.911       0.529
 C          12.185      -5.149      -0.331
 C          10.115       1.182      -0.028
 C           9.902     -13.863       0.514
 C          20.965      -2.716       0.361
 C          18.668     -11.452       0.454
 C          20.256      -3.963       0.271
 C          18.133       2.323       0.095
 C          17.932     -12.707       0.495
 C          18.837      -3.956      -0.115
 C          16.675       2.346       0.151
 C          16.476     -12.676       0.488
 C          18.076      -5.218      -0.189
 C          15.938       1.103       0.060
 C          15.739     -13.934       0.552
 C          16.574      -5.219      -0.265
 C          14.483       1.124       0.037
 C          14.280     -13.915       0.534
 C          15.857      -6.472      -0.320
 C          13.748      -0.117      -0.236
 C          13.535     -15.177       0.618
 C          14.383      -6.460      -0.347
 C          12.283      -0.112      -0.097
 C          12.091     -15.143       0.610
 C          20.923      -5.207       0.464
 C          18.823       1.061       0.199
 C          18.641     -14.001       0.611
 C          20.227      -6.461       0.452
 C          18.102      -0.188       0.028
 C          17.897     -15.215       0.665
 C          18.763      -6.437       0.218
 C          16.657      -0.146      -0.194
 C          16.452     -15.216       0.645
 C          18.016      -7.700       0.288
 C          15.675     -16.458       0.697
 C          16.557      -7.707       0.101
 C          14.278     -16.440       0.685
 C          20.906      -7.741       0.491
 C          20.174      -8.966       0.534
 C          18.700      -8.932       0.575
 C          20.861     -10.258       0.438
 C          20.143     -11.483       0.455
 C          11.461      -6.350       0.061
 C          21.026       2.320      -0.042
 C          20.821     -12.796       0.570
 C          20.302       1.060       0.124
 C          20.117     -13.988       0.630
 C          21.007      -0.185       0.188
 C           9.977      -6.331       0.244
 C          10.024      -3.833       0.043
 C          10.037      -1.327       0.056
 C           9.344      -2.575       0.118
 C           9.314      -5.064       0.209
 C           9.264      -7.601       0.252
 C           9.370      -0.039      -0.018
