   142
 frame    202
 H          22.172       4.851      -0.067
 H          20.938       7.032      -0.099
 H          18.753       8.311      -0.074
 H          14.063       9.635      -0.055
 H          16.571       9.603      -0.037
 H           9.637       7.173      -0.196
 H           8.348       5.026      -0.217
 H          11.850       8.399      -0.126
 H           8.142     -10.125       0.251
 H           8.313       2.496      -0.186
 H           8.113     -12.652       0.384
 H           9.346     -14.828       0.525
 H          11.529     -16.106       0.629
 H          16.217     -17.428       0.736
 H          13.711     -17.396       0.717
 H          20.647     -14.970       0.637
 H          22.082      -2.727       0.249
 H          22.049      -5.248       0.355
 H          22.011      -7.770       0.426
 H          21.972     -10.296       0.489
 H          22.143       2.322       0.013
 H          21.936     -12.823       0.564
 H          18.431     -16.193       0.686
 H          22.114      -0.204       0.122
 H           8.238      -2.554      -0.062
 H           8.203      -5.077       0.031
 H           8.170      -7.600       0.134
 H           8.273      -0.032      -0.137
 C          18.887       3.562      -0.091
 C          20.365       3.554      -0.098
 C          21.061       4.864      -0.134
 C          16.702       4.856       0.047
 C          18.153       4.823       0.127
 C          18.900       6.121       0.053
 C          20.394       6.079      -0.137
 C          12.358       4.891       0.064
 C          13.810       4.893       0.012
 C          14.540       6.162       0.019
 C          16.003       6.145       0.016
 C          16.743       7.410       0.118
 C          18.185       7.365       0.106
 C          11.648       6.209      -0.018
 C          12.392       7.433       0.044
 C          13.837       7.446       0.108
 C          14.609       8.687       0.133
 C          16.000       8.671       0.147
 C           9.460       5.007      -0.257
 C          10.162       6.205      -0.233
 C          13.642      -7.677      -0.249
 C          12.190      -7.683      -0.350
 C          11.438      -8.931      -0.248
 C           9.972      -8.878      -0.077
 C          11.535      -1.326      -0.505
 C           9.264     -10.118       0.197
 C          15.802      -8.948       0.053
 C          14.361      -8.929       0.023
 C          15.929      -1.397      -0.561
 C          13.602     -10.173       0.025
 C          14.439      -1.381      -0.601
 C          12.129     -10.176      -0.054
 C          13.691      -2.637      -0.600
 C          11.602       3.650      -0.196
 C          11.409     -11.365       0.314
 C          12.243      -2.613      -0.542
 C          10.124       3.674      -0.221
 C           9.938     -11.357       0.284
 C          11.520      -3.873      -0.422
 C           9.418       2.455      -0.242
 C           9.233     -12.672       0.318
 C          20.324      -1.447      -0.249
 C          17.999     -10.251       0.046
 C          18.844      -1.417      -0.364
 C          16.522     -10.209       0.086
 C          18.105      -2.682      -0.404
 C          15.982       3.605      -0.205
 C          15.776     -11.433       0.293
 C          16.644      -2.673      -0.550
 C          14.505       3.619      -0.226
 C          14.310     -11.413       0.277
 C          13.767       2.385      -0.393
 C          13.580     -12.651       0.598
 C          15.890      -3.926      -0.554
 C          14.413      -3.909      -0.588
 C          12.294       2.420      -0.471
 C          12.131     -12.615       0.635
 C          13.658      -5.159      -0.520
 C          11.566       1.183      -0.585
 C          11.396     -13.915       0.612
 C          12.206      -5.152      -0.458
 C          10.099       1.186      -0.415
 C           9.907     -13.886       0.417
 C          20.990      -2.712       0.022
 C          18.676     -11.463       0.427
 C          20.310      -3.987      -0.162
 C          18.176       2.347      -0.390
 C          17.909     -12.689       0.713
 C          18.780      -3.964      -0.264
 C          16.694       2.351      -0.345
 C          16.464     -12.690       0.621
 C          18.069      -5.224      -0.319
 C          15.935       1.110      -0.281
 C          15.741     -13.960       0.666
 C          16.612      -5.200      -0.458
 C          14.503       1.122      -0.323
 C          14.268     -13.943       0.651
 C          15.859      -6.453      -0.384
 C          13.746      -0.118      -0.498
 C          13.532     -15.212       0.802
 C          14.369      -6.435      -0.431
 C          12.292      -0.087      -0.615
 C          12.097     -15.157       0.747
 C          20.967      -5.251       0.126
 C          18.878       1.096      -0.481
 C          18.617     -14.010       0.695
 C          20.260      -6.512      -0.052
 C          18.116      -0.162      -0.502
 C          17.882     -15.235       0.799
 C          18.777      -6.511      -0.175
 C          16.655      -0.154      -0.438
 C          16.447     -15.244       0.835
 C          18.015      -7.751      -0.232
 C          15.671     -16.477       0.897
 C          16.551      -7.712      -0.184
 C          14.279     -16.462       0.885
 C          20.935      -7.762       0.162
 C          20.193      -8.999       0.114
 C          18.733      -9.018      -0.101
 C          20.856     -10.262       0.393
 C          20.147     -11.486       0.445
 C          11.462      -6.422      -0.327
 C          21.039       2.314      -0.074
 C          20.820     -12.817       0.482
 C          20.330       1.055      -0.250
 C          20.115     -14.014       0.545
 C          21.032      -0.202      -0.132
 C           9.973      -6.383      -0.276
 C           9.992      -3.858      -0.396
 C          10.048      -1.320      -0.459
 C           9.335      -2.571      -0.227
 C           9.289      -5.108      -0.142
 C           9.255      -7.618      -0.083
 C           9.363      -0.056      -0.348
