   142
 frame    900
 H          22.172       4.851      -0.067
 H          20.938       7.032      -0.099
 H          18.753       8.311      -0.074
 H          14.063       9.635      -0.055
 H          16.571       9.603      -0.037
 H           9.637       7.173      -0.196
 H           8.348       5.026      -0.217
 H          11.850       8.399      -0.126
 H           8.142     -10.125       0.251
 H           8.313       2.496      -0.186
 H           8.113     -12.652       0.384
 H           9.346     -14.828       0.525
 H          11.529     -16.106       0.629
 H          16.217     -17.428       0.736
 H          13.711     -17.396       0.717
 H          20.647     -14.970       0.637
 H          22.082      -2.727       0.249
 H          22.049      -5.248       0.355
 H          22.011      -7.770       0.426
 H          21.972     -10.296       0.489
 H          22.143       2.322       0.013
 H          21.936     -12.823       0.564
 H          18.431     -16.193       0.686
 H          22.114      -0.204       0.122
 H           8.238      -2.554      -0.062
 H           8.203      -5.077       0.031
 H           8.170      -7.600       0.134
 H           8.273      -0.032      -0.137
 C          18.850       3.621       0.225
 C          20.347       3.594       0.208
 C          21.078       4.867       0.024
 C          16.727       4.913       0.038
 C          18.185       4.874      -0.036
 C          18.926       6.125      -0.127
 C          20.409       6.072      -0.036
 C          12.339       4.961      -0.108
 C          13.802       4.956      -0.017
 C          14.540       6.203       0.032
 C          16.008       6.183       0.045
 C          16.755       7.405      -0.217
 C          18.188       7.345      -0.222
 C          11.627       6.222      -0.214
 C          12.401       7.423      -0.273
 C          13.826       7.448      -0.252
 C          14.612       8.693      -0.239
 C          16.003       8.667      -0.236
 C           9.436       5.020      -0.123
 C          10.140       6.199      -0.142
 C          13.592      -7.614       0.761
 C          12.136      -7.582       0.753
 C          11.426      -8.878       0.820
 C           9.955      -8.874       0.624
 C          11.479      -1.343       0.523
 C           9.224     -10.162       0.527
 C          15.800      -8.891       0.642
 C          14.339      -8.873       0.622
 C          15.906      -1.348       0.841
 C          13.648     -10.154       0.649
 C          14.407      -1.330       0.821
 C          12.185     -10.173       0.787
 C          13.660      -2.561       1.090
 C          11.627       3.717       0.135
 C          11.419     -11.415       0.662
 C          12.193      -2.568       0.825
 C          10.131       3.727       0.075
 C           9.932     -11.379       0.609
 C          11.426      -3.836       0.833
 C           9.404       2.520       0.065
 C           9.208     -12.662       0.496
 C          20.320      -1.452       0.484
 C          17.917     -10.245       0.884
 C          18.848      -1.431       0.677
 C          16.458     -10.190       0.688
 C          18.090      -2.638       0.942
 C          15.960       3.659       0.081
 C          15.764     -11.474       0.594
 C          16.619      -2.598       1.146
 C          14.513       3.687       0.055
 C          14.308     -11.456       0.574
 C          13.822       2.411       0.207
 C          13.555     -12.704       0.569
 C          15.867      -3.867       1.317
 C          14.374      -3.852       1.288
 C          12.361       2.467       0.339
 C          12.102     -12.677       0.481
 C          13.627      -5.129       1.177
 C          11.565       1.209       0.436
 C          11.358     -13.922       0.452
 C          12.162      -5.100       0.896
 C          10.090       1.225       0.258
 C           9.879     -13.864       0.542
 C          20.964      -2.724       0.426
 C          18.653     -11.507       0.764
 C          20.251      -3.958       0.638
 C          18.075       2.394       0.429
 C          17.947     -12.751       0.546
 C          18.828      -3.924       0.992
 C          16.617       2.374       0.262
 C          16.491     -12.740       0.626
 C          18.053      -5.178       1.030
 C          15.942       1.093       0.282
 C          15.740     -13.985       0.693
 C          16.583      -5.165       1.250
 C          14.477       1.111       0.259
 C          14.276     -13.965       0.671
 C          15.839      -6.408       1.018
 C          13.700      -0.109       0.513
 C          13.530     -15.210       0.462
 C          14.347      -6.393       0.993
 C          12.236      -0.105       0.477
 C          12.099     -15.147       0.447
 C          20.941      -5.212       0.527
 C          18.841       1.125       0.567
 C          18.652     -14.008       0.527
 C          20.244      -6.458       0.670
 C          18.131      -0.178       0.599
 C          17.886     -15.210       0.496
 C          18.779      -6.415       0.846
 C          16.670      -0.139       0.561
 C          16.460     -15.240       0.494
 C          18.031      -7.654       0.852
 C          15.676     -16.491       0.518
 C          16.575      -7.650       0.812
 C          14.284     -16.475       0.509
 C          20.911      -7.751       0.623
 C          20.181      -9.008       0.817
 C          18.698      -8.970       0.952
 C          20.878     -10.311       0.715
 C          20.144     -11.509       0.753
 C          11.416      -6.324       0.682
 C          21.047       2.376       0.246
 C          20.841     -12.803       0.642
 C          20.317       1.103       0.441
 C          20.137     -13.989       0.655
 C          21.013      -0.183       0.315
 C           9.949      -6.325       0.447
 C          10.019      -3.833       0.411
 C          10.028      -1.323       0.260
 C           9.345      -2.571       0.168
 C           9.303      -5.068       0.258
 C           9.264      -7.604       0.375
 C           9.364      -0.035       0.113
