   142
 frame    665
 H          22.172       4.851      -0.067
 H          20.938       7.032      -0.099
 H          18.753       8.311      -0.074
 H          14.063       9.635      -0.055
 H          16.571       9.603      -0.037
 H           9.637       7.173      -0.196
 H           8.348       5.026      -0.217
 H          11.850       8.399      -0.126
 H           8.142     -10.125       0.251
 H           8.313       2.496      -0.186
 H           8.113     -12.652       0.384
 H           9.346     -14.828       0.525
 H          11.529     -16.106       0.629
 H          16.217     -17.428       0.736
 H          13.711     -17.396       0.717
 H          20.647     -14.970       0.637
 H          22.082      -2.727       0.249
 H          22.049      -5.248       0.355
 H          22.011      -7.770       0.426
 H          21.972     -10.296       0.489
 H          22.143       2.322       0.013
 H          21.936     -12.823       0.564
 H          18.431     -16.193       0.686
 H          22.114      -0.204       0.122
 H           8.238      -2.554      -0.062
 H           8.203      -5.077       0.031
 H           8.170      -7.600       0.134
 H           8.273      -0.032      -0.137
 C          18.863       3.624       0.183
 C          20.312       3.601       0.096
 C          21.064       4.884       0.074
 C          16.673       4.896       0.324
 C          18.133       4.878       0.189
 C          18.908       6.127       0.122
 C          20.401       6.088       0.112
 C          12.383       4.952       0.146
 C          13.836       4.931       0.297
 C          14.546       6.217       0.445
 C          15.999       6.199       0.466
 C          16.771       7.435       0.288
 C          18.223       7.373       0.160
 C          11.628       6.213       0.072
 C          12.355       7.444       0.123
 C          13.803       7.474       0.258
 C          14.605       8.678       0.037
 C          16.004       8.657       0.054
 C           9.452       5.032      -0.060
 C          10.134       6.215       0.013
 C          13.645      -7.693       0.247
 C          12.165      -7.674       0.281
 C          11.397      -8.910       0.478
 C           9.957      -8.886       0.388
 C          11.578      -1.314      -0.066
 C           9.254     -10.179       0.316
 C          15.793      -8.957       0.559
 C          14.352      -8.946       0.535
 C          15.892      -1.383       0.002
 C          13.592     -10.145       0.806
 C          14.463      -1.369      -0.020
 C          12.107     -10.154       0.707
 C          13.732      -2.645      -0.014
 C          11.614       3.717       0.088
 C          11.413     -11.417       0.598
 C          12.281      -2.599      -0.008
 C          10.171       3.729      -0.041
 C           9.966     -11.391       0.482
 C          11.532      -3.860       0.016
 C           9.433       2.524      -0.119
 C           9.208     -12.672       0.552
 C          20.276      -1.451       0.193
 C          17.999     -10.239       0.817
 C          18.781      -1.399       0.078
 C          16.514     -10.181       0.863
 C          18.049      -2.675       0.111
 C          15.953       3.628       0.336
 C          15.755     -11.415       0.863
 C          16.599      -2.674       0.047
 C          14.526       3.639       0.319
 C          14.317     -11.395       0.847
 C          13.757       2.409       0.377
 C          13.602     -12.666       0.883
 C          15.875      -3.928       0.069
 C          14.413      -3.907       0.040
 C          12.267       2.451       0.274
 C          12.152     -12.670       0.718
 C          13.693      -5.151       0.088
 C          11.530       1.212       0.111
 C          11.372     -13.906       0.701
 C          12.239      -5.129       0.100
 C          10.094       1.228       0.023
 C           9.865     -13.870       0.667
 C          20.974      -2.736       0.223
 C          18.655     -11.503       0.703
 C          20.246      -3.970       0.265
 C          18.170       2.373       0.343
 C          17.894     -12.738       0.785
 C          18.764      -3.948       0.183
 C          16.688       2.370       0.404
 C          16.438     -12.711       0.915
 C          18.019      -5.206       0.224
 C          15.938       1.146       0.195
 C          15.730     -13.988       1.090
 C          16.572      -5.191       0.151
 C          14.482       1.160       0.186
 C          14.276     -13.965       1.066
 C          15.828      -6.462       0.194
 C          13.750      -0.094      -0.028
 C          13.504     -15.210       0.957
 C          14.388      -6.442       0.168
 C          12.265      -0.056       0.007
 C          12.065     -15.148       0.815
 C          20.936      -5.214       0.332
 C          18.884       1.124       0.231
 C          18.651     -13.998       0.780
 C          20.199      -6.476       0.393
 C          18.118      -0.130       0.093
 C          17.922     -15.227       0.867
 C          18.710      -6.502       0.287
 C          16.648      -0.133       0.017
 C          16.474     -15.253       0.971
 C          18.019      -7.751       0.393
 C          15.677     -16.465       0.775
 C          16.541      -7.725       0.309
 C          14.276     -16.449       0.760
 C          20.887      -7.745       0.478
 C          20.188      -9.013       0.595
 C          18.748      -9.002       0.635
 C          20.852     -10.325       0.524
 C          20.110     -11.514       0.637
 C          11.511      -6.406       0.137
 C          21.019       2.380       0.052
 C          20.837     -12.817       0.702
 C          20.325       1.098       0.198
 C          20.148     -14.001       0.789
 C          20.994      -0.186       0.175
 C          10.013      -6.349       0.162
 C          10.041      -3.838       0.034
 C          10.075      -1.323      -0.014
 C           9.350      -2.597      -0.033
 C           9.324      -5.065       0.059
 C           9.293      -7.606       0.227
 C           9.393      -0.039      -0.049
