   142
 frame    146
 H          22.172       4.851      -0.067
 H          20.938       7.032      -0.099
 H          18.753       8.311      -0.074
 H          14.063       9.635      -0.055
 H          16.571       9.603      -0.037
 H           9.637       7.173      -0.196
 H           8.348       5.026      -0.217
 H          11.850       8.399      -0.126
 H           8.142     -10.125       0.251
 H           8.313       2.496      -0.186
 H           8.113     -12.652       0.384
 H           9.346     -14.828       0.525
 H          11.529     -16.106       0.629
 H          16.217     -17.428       0.736
 H          13.711     -17.396       0.717
 H          20.647     -14.970       0.637
 H          22.082      -2.727       0.249
 H          22.049      -5.248       0.355
 H          22.011      -7.770       0.426
 H          21.972     -10.296       0.489
 H          22.143       2.322       0.013
 H          21.936     -12.823       0.564
 H          18.431     -16.193       0.686
 H          22.114      -0.204       0.122
 H           8.238      -2.554      -0.062
 H           8.203      -5.077       0.031
 H           8.170      -7.600       0.134
 H           8.273      -0.032      -0.137
 C          18.876       3.587       0.078
 C          20.352       3.571       0.161
 C          21.067       4.889       0.118
 C          16.712       4.882       0.115
 C          18.166       4.847       0.104
 C          18.901       6.122      -0.005
 C          20.368       6.083      -0.022
 C          12.345       4.920       0.040
 C          13.801       4.920       0.075
 C          14.545       6.182       0.072
 C          16.001       6.159       0.080
 C          16.751       7.399      -0.077
 C          18.194       7.352      -0.105
 C          11.649       6.215      -0.073
 C          12.394       7.428      -0.151
 C          13.836       7.439      -0.098
 C          14.616       8.674      -0.136
 C          16.011       8.656      -0.122
 C           9.448       5.030      -0.009
 C          10.174       6.211      -0.101
 C          13.646      -7.680      -0.111
 C          12.170      -7.660      -0.057
 C          11.428      -8.911       0.087
 C           9.950      -8.874       0.068
 C          11.535      -1.340      -0.481
 C           9.238     -10.121       0.341
 C          15.816      -8.962       0.135
 C          14.345      -8.946       0.101
 C          15.941      -1.407      -0.519
 C          13.608     -10.208       0.179
 C          14.434      -1.391      -0.526
 C          12.138     -10.171       0.231
 C          13.680      -2.657      -0.506
 C          11.607       3.677      -0.013
 C          11.403     -11.390       0.499
 C          12.223      -2.650      -0.531
 C          10.134       3.694       0.021
 C           9.932     -11.360       0.537
 C          11.481      -3.885      -0.665
 C           9.412       2.469      -0.096
 C           9.205     -12.669       0.594
 C          20.332      -1.448      -0.251
 C          17.981     -10.247       0.328
 C          18.844      -1.432      -0.317
 C          16.518     -10.249       0.237
 C          18.118      -2.727      -0.412
 C          15.972       3.649      -0.099
 C          15.772     -11.477       0.408
 C          16.670      -2.690      -0.455
 C          14.518       3.666      -0.131
 C          14.320     -11.459       0.390
 C          13.781       2.425      -0.248
 C          13.571     -12.677       0.664
 C          15.894      -3.945      -0.306
 C          14.413      -3.922      -0.313
 C          12.322       2.430      -0.203
 C          12.116     -12.645       0.628
 C          13.651      -5.171      -0.415
 C          11.566       1.181      -0.260
 C          11.380     -13.924       0.591
 C          12.196      -5.137      -0.445
 C          10.090       1.185      -0.277
 C           9.899     -13.874       0.569
 C          21.017      -2.728      -0.077
 C          18.677     -11.481       0.611
 C          20.339      -3.985      -0.239
 C          18.133       2.362      -0.121
 C          17.926     -12.717       0.707
 C          18.831      -3.985      -0.494
 C          16.683       2.394      -0.222
 C          16.475     -12.711       0.699
 C          18.082      -5.209      -0.314
 C          15.952       1.118      -0.242
 C          15.736     -13.968       0.744
 C          16.633      -5.211      -0.351
 C          14.479       1.138      -0.255
 C          14.281     -13.954       0.726
 C          15.870      -6.461      -0.317
 C          13.747      -0.112      -0.389
 C          13.540     -15.200       0.606
 C          14.366      -6.445      -0.345
 C          12.268      -0.094      -0.330
 C          12.097     -15.158       0.563
 C          20.984      -5.245       0.021
 C          18.860       1.092      -0.147
 C          18.631     -14.015       0.672
 C          20.265      -6.514      -0.045
 C          18.136      -0.168      -0.223
 C          17.894     -15.229       0.616
 C          18.773      -6.499      -0.139
 C          16.656      -0.148      -0.334
 C          16.450     -15.231       0.634
 C          18.026      -7.733       0.054
 C          15.680     -16.465       0.614
 C          16.560      -7.719      -0.068
 C          14.286     -16.452       0.606
 C          20.935      -7.764       0.130
 C          20.203      -9.002       0.275
 C          18.730      -9.005       0.222
 C          20.870     -10.267       0.546
 C          20.149     -11.493       0.687
 C          11.466      -6.412      -0.289
 C          21.041       2.325       0.082
 C          20.839     -12.820       0.741
 C          20.334       1.059      -0.094
 C          20.117     -14.003       0.686
 C          21.030      -0.209      -0.164
 C           9.965      -6.392      -0.271
 C           9.967      -3.853      -0.464
 C          10.044      -1.315      -0.455
 C           9.321      -2.579      -0.325
 C           9.287      -5.106      -0.243
 C           9.260      -7.621      -0.121
 C           9.367      -0.060      -0.376
