   142
 frame    138
 H          22.172       4.851      -0.067
 H          20.938       7.032      -0.099
 H          18.753       8.311      -0.074
 H          14.063       9.635      -0.055
 H          16.571       9.603      -0.037
 H           9.637       7.173      -0.196
 H           8.348       5.026      -0.217
 H          11.850       8.399      -0.126
 H           8.142     -10.125       0.251
 H           8.313       2.496      -0.186
 H           8.113     -12.652       0.384
 H           9.346     -14.828       0.525
 H          11.529     -16.106       0.629
 H          16.217     -17.428       0.736
 H          13.711     -17.396       0.717
 H          20.647     -14.970       0.637
 H          22.082      -2.727       0.249
 H          22.049      -5.248       0.355
 H          22.011      -7.770       0.426
 H          21.972     -10.296       0.489
 H          22.143       2.322       0.013
 H          21.936     -12.823       0.564
 H          18.431     -16.193       0.686
 H          22.114      -0.204       0.122
 H           8.238      -2.554      -0.062
 H           8.203      -5.077       0.031
 H           8.170      -7.600       0.134
 H           8.273      -0.032      -0.137
 C          18.880       3.599       0.117
 C          20.366       3.577       0.203
 C          21.067       4.882       0.039
 C          16.700       4.885       0.136
 C          18.165       4.865       0.141
 C          18.900       6.127      -0.071
 C          20.375       6.069      -0.172
 C          12.349       4.932       0.067
 C          13.814       4.922       0.105
 C          14.560       6.150       0.038
 C          15.991       6.135       0.049
 C          16.734       7.373      -0.109
 C          18.174       7.348      -0.174
 C          11.647       6.219      -0.144
 C          12.407       7.425      -0.214
 C          13.852       7.410      -0.133
 C          14.610       8.662      -0.137
 C          16.006       8.640      -0.125
 C           9.449       5.023      -0.079
 C          10.176       6.198      -0.247
 C          13.629      -7.684      -0.090
 C          12.169      -7.656      -0.020
 C          11.428      -8.907       0.114
 C           9.951      -8.876       0.165
 C          11.541      -1.363      -0.457
 C           9.254     -10.122       0.404
 C          15.827      -8.972       0.138
 C          14.335      -8.950       0.101
 C          15.917      -1.410      -0.538
 C          13.603     -10.214       0.189
 C          14.469      -1.395      -0.555
 C          12.151     -10.182       0.237
 C          13.715      -2.667      -0.468
 C          11.603       3.684       0.028
 C          11.409     -11.396       0.543
 C          12.239      -2.642      -0.462
 C          10.115       3.699       0.059
 C           9.917     -11.359       0.580
 C          11.458      -3.883      -0.613
 C           9.419       2.466      -0.035
 C           9.215     -12.666       0.524
 C          20.312      -1.472      -0.213
 C          17.972     -10.251       0.339
 C          18.833      -1.458      -0.292
 C          16.523     -10.250       0.240
 C          18.108      -2.715      -0.345
 C          15.967       3.659      -0.042
 C          15.773     -11.476       0.472
 C          16.630      -2.706      -0.424
 C          14.522       3.679      -0.070
 C          14.313     -11.456       0.454
 C          13.777       2.442      -0.242
 C          13.579     -12.680       0.697
 C          15.897      -3.936      -0.378
 C          14.413      -3.918      -0.391
 C          12.319       2.434      -0.198
 C          12.118     -12.657       0.665
 C          13.680      -5.160      -0.386
 C          11.572       1.177      -0.235
 C          11.386     -13.932       0.521
 C          12.209      -5.137      -0.369
 C          10.090       1.188      -0.188
 C           9.916     -13.865       0.411
 C          21.022      -2.725      -0.149
 C          18.670     -11.495       0.656
 C          20.286      -3.982      -0.204
 C          18.141       2.363      -0.123
 C          17.927     -12.734       0.740
 C          18.859      -3.978      -0.438
 C          16.685       2.406      -0.199
 C          16.468     -12.716       0.733
 C          18.070      -5.214      -0.245
 C          15.967       1.141      -0.241
 C          15.728     -13.956       0.712
 C          16.597      -5.194      -0.324
 C          14.467       1.155      -0.248
 C          14.291     -13.937       0.693
 C          15.850      -6.463      -0.348
 C          13.724      -0.112      -0.376
 C          13.550     -15.183       0.569
 C          14.402      -6.441      -0.365
 C          12.267      -0.104      -0.288
 C          12.107     -15.160       0.492
 C          20.986      -5.260      -0.042
 C          18.850       1.087      -0.120
 C          18.631     -14.019       0.604
 C          20.243      -6.488      -0.017
 C          18.136      -0.174      -0.188
 C          17.884     -15.230       0.547
 C          18.759      -6.476      -0.111
 C          16.683      -0.150      -0.321
 C          16.442     -15.220       0.596
 C          18.034      -7.725       0.088
 C          15.676     -16.466       0.614
 C          16.571      -7.717      -0.036
 C          14.282     -16.448       0.603
 C          20.920      -7.785       0.167
 C          20.195      -9.000       0.373
 C          18.722      -8.999       0.245
 C          20.860     -10.276       0.598
 C          20.158     -11.497       0.729
 C          11.474      -6.384      -0.263
 C          21.033       2.326       0.145
 C          20.833     -12.815       0.678
 C          20.332       1.060      -0.012
 C          20.102     -13.991       0.532
 C          21.027      -0.179      -0.118
 C           9.988      -6.369      -0.237
 C          10.010      -3.860      -0.429
 C          10.052      -1.339      -0.416
 C           9.311      -2.570      -0.392
 C           9.274      -5.113      -0.308
 C           9.269      -7.644      -0.085
 C           9.371      -0.037      -0.343
