   142
 frame    488
 H          22.172       4.851      -0.067
 H          20.938       7.032      -0.099
 H          18.753       8.311      -0.074
 H          14.063       9.635      -0.055
 H          16.571       9.603      -0.037
 H           9.637       7.173      -0.196
 H           8.348       5.026      -0.217
 H          11.850       8.399      -0.126
 H           8.142     -10.125       0.251
 H           8.313       2.496      -0.186
 H           8.113     -12.652       0.384
 H           9.346     -14.828       0.525
 H          11.529     -16.106       0.629
 H          16.217     -17.428       0.736
 H          13.711     -17.396       0.717
 H          20.647     -14.970       0.637
 H          22.082      -2.727       0.249
 H          22.049      -5.248       0.355
 H          22.011      -7.770       0.426
 H          21.972     -10.296       0.489
 H          22.143       2.322       0.013
 H          21.936     -12.823       0.564
 H          18.431     -16.193       0.686
 H          22.114      -0.204       0.122
 H           8.238      -2.554      -0.062
 H           8.203      -5.077       0.031
 H           8.170      -7.600       0.134
 H           8.273      -0.032      -0.137
 C          18.886       3.571      -0.377
 C          20.357       3.557      -0.137
 C          21.061       4.865      -0.128
 C          16.739       4.879      -0.265
 C          18.191       4.842      -0.311
 C          18.898       6.119      -0.245
 C          20.358       6.072      -0.210
 C          12.324       4.914      -0.377
 C          13.783       4.918      -0.297
 C          14.531       6.175      -0.260
 C          16.023       6.158      -0.255
 C          16.756       7.419      -0.232
 C          18.178       7.363      -0.165
 C          11.655       6.208      -0.315
 C          12.405       7.428      -0.222
 C          13.826       7.454      -0.268
 C          14.611       8.671      -0.141
 C          15.999       8.656      -0.140
 C           9.460       5.023      -0.238
 C          10.197       6.204      -0.289
 C          13.616      -7.671      -0.237
 C          12.157      -7.654       0.012
 C          11.447      -8.913       0.089
 C           9.949      -8.871       0.157
 C          11.499      -1.325      -0.077
 C           9.233     -10.126       0.275
 C          15.816      -8.967      -0.330
 C          14.347      -8.946      -0.349
 C          15.929      -1.423      -0.378
 C          13.614     -10.221      -0.209
 C          14.440      -1.411      -0.414
 C          12.135     -10.173      -0.148
 C          13.704      -2.619      -0.003
 C          11.604       3.665      -0.475
 C          11.395     -11.403       0.017
 C          12.196      -2.616      -0.068
 C          10.131       3.689      -0.274
 C           9.933     -11.368       0.264
 C          11.449      -3.854       0.100
 C           9.402       2.469      -0.179
 C           9.226     -12.671       0.359
 C          20.324      -1.451       0.078
 C          17.995     -10.242      -0.055
 C          18.856      -1.423       0.054
 C          16.513     -10.251      -0.153
 C          18.120      -2.682       0.056
 C          15.985       3.632      -0.403
 C          15.784     -11.470       0.073
 C          16.612      -2.655       0.057
 C          14.508       3.651      -0.415
 C          14.312     -11.453       0.052
 C          13.774       2.421      -0.613
 C          13.549     -12.696       0.249
 C          15.873      -3.918       0.235
 C          14.408      -3.899       0.200
 C          12.312       2.407      -0.559
 C          12.098     -12.654       0.188
 C          13.662      -5.162       0.070
 C          11.590       1.184      -0.244
 C          11.385     -13.919       0.328
 C          12.159      -5.123       0.019
 C          10.092       1.202      -0.177
 C           9.922     -13.881       0.361
 C          20.998      -2.708       0.265
 C          18.702     -11.492       0.124
 C          20.309      -3.961       0.328
 C          18.151       2.330      -0.456
 C          17.964     -12.732       0.252
 C          18.836      -3.945       0.231
 C          16.686       2.380      -0.561
 C          16.513     -12.729       0.278
 C          18.098      -5.191       0.124
 C          15.951       1.102      -0.645
 C          15.759     -13.978       0.344
 C          16.583      -5.195       0.120
 C          14.482       1.122      -0.687
 C          14.268     -13.959       0.326
 C          15.863      -6.435      -0.257
 C          13.722      -0.128      -0.469
 C          13.542     -15.216       0.420
 C          14.367      -6.409      -0.292
 C          12.265      -0.092      -0.225
 C          12.112     -15.152       0.471
 C          20.961      -5.236       0.353
 C          18.838       1.083      -0.134
 C          18.638     -14.008       0.406
 C          20.255      -6.480       0.246
 C          18.125      -0.171      -0.121
 C          17.883     -15.223       0.527
 C          18.793      -6.485       0.226
 C          16.675      -0.167      -0.410
 C          16.451     -15.256       0.444
 C          18.028      -7.722       0.133
 C          15.664     -16.478       0.617
 C          16.575      -7.711      -0.183
 C          14.281     -16.459       0.601
 C          20.931      -7.757       0.255
 C          20.205      -8.992       0.347
 C          18.704      -8.996       0.203
 C          20.884     -10.269       0.460
 C          20.158     -11.490       0.403
 C          11.431      -6.392       0.077
 C          21.046       2.323       0.005
 C          20.826     -12.818       0.505
 C          20.325       1.061      -0.013
 C          20.092     -14.004       0.471
 C          21.026      -0.195      -0.032
 C           9.964      -6.356       0.018
 C           9.980      -3.837       0.101
 C          10.028      -1.323      -0.141
 C           9.325      -2.564       0.004
 C           9.288      -5.089       0.091
 C           9.255      -7.616       0.008
 C           9.360      -0.039      -0.251
