   142
 frame    760
 H          22.172       4.851      -0.067
 H          20.938       7.032      -0.099
 H          18.753       8.311      -0.074
 H          14.063       9.635      -0.055
 H          16.571       9.603      -0.037
 H           9.637       7.173      -0.196
 H           8.348       5.026      -0.217
 H          11.850       8.399      -0.126
 H           8.142     -10.125       0.251
 H           8.313       2.496      -0.186
 H           8.113     -12.652       0.384
 H           9.346     -14.828       0.525
 H          11.529     -16.106       0.629
 H          16.217     -17.428       0.736
 H          13.711     -17.396       0.717
 H          20.647     -14.970       0.637
 H          22.082      -2.727       0.249
 H          22.049      -5.248       0.355
 H          22.011      -7.770       0.426
 H          21.972     -10.296       0.489
 H          22.143       2.322       0.013
 H          21.936     -12.823       0.564
 H          18.431     -16.193       0.686
 H          22.114      -0.204       0.122
 H           8.238      -2.554      -0.062
 H           8.203      -5.077       0.031
 H           8.170      -7.600       0.134
 H           8.273      -0.032      -0.137
 C          18.877       3.603       0.340
 C          20.376       3.564       0.148
 C          21.069       4.869       0.010
 C          16.686       4.932       0.483
 C          18.146       4.864       0.314
 C          18.881       6.123       0.092
 C          20.366       6.061      -0.021
 C          12.349       4.938       0.251
 C          13.819       4.973       0.448
 C          14.552       6.231       0.352
 C          15.986       6.216       0.383
 C          16.769       7.417       0.173
 C          18.214       7.354       0.068
 C          11.655       6.215       0.019
 C          12.365       7.432       0.017
 C          13.805       7.458       0.156
 C          14.596       8.668       0.082
 C          16.011       8.651       0.083
 C           9.450       5.020      -0.116
 C          10.175       6.195      -0.111
 C          13.638      -7.665       0.440
 C          12.182      -7.629       0.433
 C          11.434      -8.859       0.621
 C           9.955      -8.818       0.512
 C          11.526      -1.326       0.134
 C           9.225     -10.123       0.417
 C          15.806      -8.948       0.675
 C          14.330      -8.929       0.640
 C          15.912      -1.423       0.305
 C          13.574     -10.147       0.899
 C          14.436      -1.408       0.285
 C          12.118     -10.129       0.769
 C          13.661      -2.642       0.496
 C          11.591       3.679       0.240
 C          11.380     -11.380       0.759
 C          12.187      -2.605       0.321
 C          10.102       3.696       0.019
 C           9.903     -11.348       0.538
 C          11.410      -3.840       0.258
 C           9.404       2.476      -0.050
 C           9.219     -12.653       0.482
 C          20.290      -1.431       0.314
 C          17.988     -10.205       0.890
 C          18.821      -1.419       0.298
 C          16.528     -10.186       0.958
 C          18.126      -2.670       0.470
 C          15.970       3.674       0.532
 C          15.772     -11.453       1.053
 C          16.638      -2.679       0.558
 C          14.501       3.686       0.494
 C          14.294     -11.436       1.014
 C          13.744       2.421       0.450
 C          13.581     -12.696       1.029
 C          15.872      -3.891       0.739
 C          14.378      -3.879       0.694
 C          12.303       2.425       0.317
 C          12.113     -12.641       0.819
 C          13.626      -5.103       0.612
 C          11.569       1.160       0.252
 C          11.388     -13.907       0.665
 C          12.156      -5.100       0.434
 C          10.090       1.173       0.157
 C           9.899     -13.855       0.547
 C          20.986      -2.674       0.247
 C          18.685     -11.473       0.872
 C          20.352      -3.962       0.316
 C          18.138       2.360       0.399
 C          17.924     -12.719       0.904
 C          18.861      -3.932       0.447
 C          16.694       2.386       0.491
 C          16.452     -12.737       1.088
 C          18.088      -5.174       0.567
 C          15.948       1.150       0.298
 C          15.727     -14.002       1.035
 C          16.607      -5.138       0.677
 C          14.469       1.165       0.270
 C          14.280     -13.980       1.017
 C          15.848      -6.381       0.532
 C          13.751      -0.087       0.141
 C          13.499     -15.203       0.863
 C          14.361      -6.357       0.496
 C          12.287      -0.083       0.143
 C          12.061     -15.143       0.716
 C          20.961      -5.260       0.345
 C          18.838       1.073       0.379
 C          18.622     -13.994       0.754
 C          20.227      -6.474       0.509
 C          18.096      -0.161       0.263
 C          17.923     -15.218       0.777
 C          18.752      -6.462       0.488
 C          16.637      -0.127       0.192
 C          16.482     -15.240       0.896
 C          17.997      -7.698       0.581
 C          15.684     -16.453       0.838
 C          16.537      -7.699       0.489
 C          14.270     -16.436       0.819
 C          20.919      -7.739       0.586
 C          20.184      -8.955       0.716
 C          18.711      -8.944       0.780
 C          20.883     -10.268       0.609
 C          20.173     -11.477       0.698
 C          11.455      -6.368       0.315
 C          21.052       2.330       0.127
 C          20.826     -12.801       0.626
 C          20.313       1.045       0.327
 C          20.108     -13.981       0.672
 C          21.013      -0.193       0.271
 C           9.992      -6.347       0.280
 C           9.929      -3.832       0.059
 C          10.062      -1.309       0.112
 C           9.330      -2.528      -0.016
 C           9.294      -5.122       0.068
 C           9.261      -7.583       0.327
 C           9.362      -0.051       0.085
