   142
 frame    795
 H          22.172       4.851      -0.067
 H          20.938       7.032      -0.099
 H          18.753       8.311      -0.074
 H          14.063       9.635      -0.055
 H          16.571       9.603      -0.037
 H           9.637       7.173      -0.196
 H           8.348       5.026      -0.217
 H          11.850       8.399      -0.126
 H           8.142     -10.125       0.251
 H           8.313       2.496      -0.186
 H           8.113     -12.652       0.384
 H           9.346     -14.828       0.525
 H          11.529     -16.106       0.629
 H          16.217     -17.428       0.736
 H          13.711     -17.396       0.717
 H          20.647     -14.970       0.637
 H          22.082      -2.727       0.249
 H          22.049      -5.248       0.355
 H          22.011      -7.770       0.426
 H          21.972     -10.296       0.489
 H          22.143       2.322       0.013
 H          21.936     -12.823       0.564
 H          18.431     -16.193       0.686
 H          22.114      -0.204       0.122
 H           8.238      -2.554      -0.062
 H           8.203      -5.077       0.031
 H           8.170      -7.600       0.134
 H           8.273      -0.032      -0.137
 C          18.912       3.637       0.237
 C          20.386       3.612       0.131
 C          21.078       4.918      -0.111
 C          16.755       4.883       0.333
 C          18.188       4.903       0.143
 C          18.909       6.174      -0.063
 C          20.380       6.109      -0.143
 C          12.326       4.969       0.070
 C          13.752       4.919       0.321
 C          14.542       6.147       0.194
 C          16.016       6.124       0.216
 C          16.726       7.377       0.044
 C          18.159       7.379      -0.074
 C          11.635       6.274      -0.140
 C          12.414       7.457      -0.125
 C          13.852       7.410       0.020
 C          14.609       8.637       0.028
 C          16.000       8.616       0.048
 C           9.443       5.065      -0.251
 C          10.168       6.244      -0.243
 C          13.600      -7.609       0.882
 C          12.124      -7.611       0.727
 C          11.416      -8.880       0.563
 C           9.957      -8.892       0.358
 C          11.536      -1.336       0.317
 C           9.247     -10.138       0.386
 C          15.796      -8.899       0.957
 C          14.338      -8.877       0.916
 C          15.898      -1.347       0.635
 C          13.612     -10.163       0.906
 C          14.435      -1.327       0.593
 C          12.141     -10.141       0.711
 C          13.732      -2.591       0.432
 C          11.572       3.726       0.135
 C          11.378     -11.407       0.657
 C          12.278      -2.591       0.443
 C          10.104       3.750      -0.001
 C           9.913     -11.412       0.516
 C          11.561      -3.850       0.362
 C           9.405       2.489      -0.037
 C           9.212     -12.725       0.347
 C          20.278      -1.442       0.311
 C          17.972     -10.212       0.816
 C          18.814      -1.426       0.473
 C          16.492     -10.198       0.955
 C          18.028      -2.664       0.564
 C          15.978       3.648       0.531
 C          15.771     -11.438       1.069
 C          16.579      -2.629       0.502
 C          14.502       3.672       0.519
 C          14.300     -11.420       1.046
 C          13.784       2.421       0.461
 C          13.512     -12.662       0.911
 C          15.859      -3.902       0.488
 C          14.419      -3.881       0.449
 C          12.298       2.428       0.274
 C          12.095     -12.676       0.665
 C          13.697      -5.145       0.545
 C          11.550       1.186       0.218
 C          11.379     -13.976       0.524
 C          12.246      -5.109       0.525
 C          10.098       1.219       0.003
 C           9.918     -13.915       0.418
 C          20.967      -2.730       0.288
 C          18.703     -11.502       0.787
 C          20.205      -3.963       0.424
 C          18.150       2.356       0.366
 C          17.951     -12.749       0.754
 C          18.713      -3.938       0.531
 C          16.664       2.389       0.495
 C          16.528     -12.700       0.947
 C          17.991      -5.182       0.672
 C          15.924       1.120       0.555
 C          15.747     -13.931       0.867
 C          16.540      -5.180       0.609
 C          14.474       1.141       0.533
 C          14.268     -13.911       0.847
 C          15.825      -6.430       0.833
 C          13.693      -0.101       0.588
 C          13.558     -15.169       0.731
 C          14.375      -6.411       0.801
 C          12.219      -0.086       0.454
 C          12.126     -15.178       0.587
 C          20.932      -5.223       0.396
 C          18.859       1.094       0.344
 C          18.632     -14.065       0.601
 C          20.212      -6.486       0.532
 C          18.144      -0.159       0.552
 C          17.860     -15.252       0.649
 C          18.735      -6.444       0.683
 C          16.670      -0.139       0.647
 C          16.423     -15.209       0.753
 C          18.034      -7.693       0.853
 C          15.666     -16.439       0.801
 C          16.558      -7.650       0.948
 C          14.280     -16.418       0.786
 C          20.882      -7.770       0.457
 C          20.190      -9.019       0.565
 C          18.725      -8.973       0.706
 C          20.871     -10.281       0.605
 C          20.173     -11.537       0.691
 C          11.478      -6.354       0.521
 C          21.040       2.335       0.138
 C          20.838     -12.864       0.495
 C          20.323       1.087       0.190
 C          20.101     -14.037       0.536
 C          20.991      -0.176       0.172
 C          10.007      -6.358       0.292
 C          10.074      -3.838       0.191
 C          10.070      -1.315       0.083
 C           9.353      -2.589       0.022
 C           9.320      -5.077       0.119
 C           9.294      -7.631       0.207
 C           9.397      -0.032      -0.086
