   142
 frame    513
 H          22.172       4.851      -0.067
 H          20.938       7.032      -0.099
 H          18.753       8.311      -0.074
 H          14.063       9.635      -0.055
 H          16.571       9.603      -0.037
 H           9.637       7.173      -0.196
 H           8.348       5.026      -0.217
 H          11.850       8.399      -0.126
 H           8.142     -10.125       0.251
 H           8.313       2.496      -0.186
 H           8.113     -12.652       0.384
 H           9.346     -14.828       0.525
 H          11.529     -16.106       0.629
 H          16.217     -17.428       0.736
 H          13.711     -17.396       0.717
 H          20.647     -14.970       0.637
 H          22.082      -2.727       0.249
 H          22.049      -5.248       0.355
 H          22.011      -7.770       0.426
 H          21.972     -10.296       0.489
 H          22.143       2.322       0.013
 H          21.936     -12.823       0.564
 H          18.431     -16.193       0.686
 H          22.114      -0.204       0.122
 H           8.238      -2.554      -0.062
 H           8.203      -5.077       0.031
 H           8.170      -7.600       0.134
 H           8.273      -0.032      -0.137
 C          18.834       3.613      -0.014
 C          20.321       3.604       0.043
 C          21.073       4.863      -0.027
 C          16.707       4.839      -0.225
 C          18.162       4.870      -0.205
 C          18.934       6.119      -0.281
 C          20.399       6.063      -0.161
 C          12.352       4.948      -0.272
 C          13.816       4.875      -0.256
 C          14.531       6.149      -0.206
 C          16.018       6.133      -0.188
 C          16.760       7.406      -0.237
 C          18.201       7.360      -0.324
 C          11.618       6.216      -0.347
 C          12.384       7.432      -0.368
 C          13.820       7.448      -0.251
 C          14.611       8.684      -0.213
 C          16.004       8.662      -0.195
 C           9.445       5.002      -0.173
 C          10.155       6.189      -0.277
 C          13.666      -7.633      -0.192
 C          12.211      -7.610      -0.012
 C          11.453      -8.874       0.047
 C           9.960      -8.873       0.173
 C          11.560      -1.358      -0.122
 C           9.262     -10.154       0.321
 C          15.810      -8.914      -0.271
 C          14.364      -8.894      -0.315
 C          15.903      -1.426      -0.160
 C          13.595     -10.139      -0.078
 C          14.461      -1.408      -0.191
 C          12.143     -10.144       0.166
 C          13.726      -2.642      -0.029
 C          11.652       3.706      -0.110
 C          11.443     -11.410       0.407
 C          12.259      -2.616       0.006
 C          10.174       3.720      -0.092
 C           9.971     -11.393       0.411
 C          11.537      -3.863      -0.057
 C           9.432       2.499      -0.109
 C           9.214     -12.655       0.430
 C          20.270      -1.453       0.065
 C          17.974     -10.219       0.259
 C          18.801      -1.441       0.026
 C          16.535     -10.170      -0.033
 C          18.066      -2.683       0.102
 C          15.983       3.548      -0.375
 C          15.781     -11.383       0.110
 C          16.599      -2.679       0.014
 C          14.511       3.563      -0.402
 C          14.312     -11.361       0.087
 C          13.754       2.346      -0.487
 C          13.576     -12.651       0.296
 C          15.867      -3.918       0.113
 C          14.422      -3.896       0.101
 C          12.321       2.409      -0.258
 C          12.117     -12.675       0.293
 C          13.693      -5.139       0.034
 C          11.589       1.153      -0.279
 C          11.344     -13.930       0.290
 C          12.230      -5.120       0.069
 C          10.097       1.196      -0.180
 C           9.884     -13.864       0.393
 C          20.953      -2.725       0.091
 C          18.637     -11.503       0.499
 C          20.225      -3.977       0.078
 C          18.139       2.342      -0.175
 C          17.932     -12.754       0.365
 C          18.750      -3.961       0.089
 C          16.708       2.311      -0.441
 C          16.477     -12.686       0.330
 C          18.027      -5.196       0.180
 C          15.947       1.048      -0.593
 C          15.754     -13.953       0.421
 C          16.562      -5.170       0.071
 C          14.495       1.065      -0.612
 C          14.258     -13.933       0.416
 C          15.834      -6.422      -0.018
 C          13.762      -0.171      -0.414
 C          13.519     -15.210       0.424
 C          14.396      -6.404      -0.033
 C          12.304      -0.132      -0.243
 C          12.079     -15.165       0.327
 C          20.926      -5.234       0.183
 C          18.840       1.063      -0.158
 C          18.676     -14.016       0.373
 C          20.203      -6.472       0.256
 C          18.087      -0.196      -0.141
 C          17.917     -15.236       0.382
 C          18.739      -6.461       0.179
 C          16.636      -0.211      -0.362
 C          16.467     -15.249       0.452
 C          17.987      -7.682       0.085
 C          15.676     -16.486       0.531
 C          16.535      -7.662      -0.140
 C          14.285     -16.467       0.528
 C          20.892      -7.748       0.389
 C          20.193      -9.005       0.359
 C          18.701      -8.961       0.176
 C          20.850     -10.306       0.520
 C          20.109     -11.518       0.554
 C          11.488      -6.366       0.040
 C          21.020       2.359       0.046
 C          20.837     -12.799       0.567
 C          20.326       1.073      -0.011
 C          20.132     -13.987       0.501
 C          20.995      -0.196       0.108
 C          10.010      -6.349       0.032
 C          10.065      -3.845      -0.139
 C          10.088      -1.337      -0.140
 C           9.368      -2.581      -0.166
 C           9.326      -5.088      -0.081
 C           9.282      -7.605       0.148
 C           9.391      -0.056      -0.112
