   142
 frame    214
 H          22.172       4.851      -0.067
 H          20.938       7.032      -0.099
 H          18.753       8.311      -0.074
 H          14.063       9.635      -0.055
 H          16.571       9.603      -0.037
 H           9.637       7.173      -0.196
 H           8.348       5.026      -0.217
 H          11.850       8.399      -0.126
 H           8.142     -10.125       0.251
 H           8.313       2.496      -0.186
 H           8.113     -12.652       0.384
 H           9.346     -14.828       0.525
 H          11.529     -16.106       0.629
 H          16.217     -17.428       0.736
 H          13.711     -17.396       0.717
 H          20.647     -14.970       0.637
 H          22.082      -2.727       0.249
 H          22.049      -5.248       0.355
 H          22.011      -7.770       0.426
 H          21.972     -10.296       0.489
 H          22.143       2.322       0.013
 H          21.936     -12.823       0.564
 H          18.431     -16.193       0.686
 H          22.114      -0.204       0.122
 H           8.238      -2.554      -0.062
 H           8.203      -5.077       0.031
 H           8.170      -7.600       0.134
 H           8.273      -0.032      -0.137
 C          18.862       3.602      -0.151
 C          20.341       3.560      -0.101
 C          21.073       4.845      -0.180
 C          16.679       4.876       0.080
 C          18.151       4.855       0.003
 C          18.903       6.102      -0.120
 C          20.377       6.046      -0.224
 C          12.364       4.926      -0.072
 C          13.831       4.909       0.038
 C          14.551       6.181       0.165
 C          15.992       6.164       0.186
 C          16.745       7.413       0.088
 C          18.191       7.341      -0.076
 C          11.653       6.193      -0.179
 C          12.395       7.417      -0.132
 C          13.831       7.450       0.071
 C          14.607       8.693       0.082
 C          16.000       8.676       0.080
 C           9.454       4.991      -0.295
 C          10.180       6.176      -0.321
 C          13.651      -7.694      -0.297
 C          12.157      -7.657      -0.275
 C          11.423      -8.905      -0.238
 C           9.958      -8.876      -0.053
 C          11.517      -1.346      -0.480
 C           9.254     -10.118       0.225
 C          15.820      -8.972      -0.054
 C          14.336      -8.954      -0.084
 C          15.918      -1.398      -0.688
 C          13.605     -10.212      -0.007
 C          14.464      -1.378      -0.713
 C          12.157     -10.168      -0.061
 C          13.710      -2.630      -0.631
 C          11.630       3.691      -0.248
 C          11.429     -11.404       0.251
 C          12.221      -2.611      -0.473
 C          10.148       3.688      -0.227
 C           9.948     -11.363       0.281
 C          11.469      -3.868      -0.401
 C           9.429       2.453      -0.213
 C           9.228     -12.655       0.282
 C          20.325      -1.442      -0.168
 C          17.975     -10.237       0.049
 C          18.850      -1.433      -0.320
 C          16.526     -10.246       0.049
 C          18.106      -2.683      -0.337
 C          15.959       3.629      -0.188
 C          15.761     -11.466       0.316
 C          16.639      -2.670      -0.586
 C          14.525       3.650      -0.203
 C          14.321     -11.451       0.288
 C          13.771       2.416      -0.433
 C          13.592     -12.666       0.618
 C          15.894      -3.929      -0.572
 C          14.414      -3.910      -0.600
 C          12.318       2.410      -0.476
 C          12.127     -12.643       0.499
 C          13.672      -5.171      -0.552
 C          11.557       1.158      -0.582
 C          11.391     -13.907       0.444
 C          12.186      -5.146      -0.392
 C          10.094       1.170      -0.396
 C           9.923     -13.859       0.320
 C          20.994      -2.710      -0.041
 C          18.660     -11.495       0.357
 C          20.274      -3.968      -0.058
 C          18.149       2.343      -0.405
 C          17.920     -12.719       0.574
 C          18.833      -3.954      -0.223
 C          16.701       2.382      -0.382
 C          16.449     -12.703       0.645
 C          18.077      -5.220      -0.260
 C          15.962       1.130      -0.386
 C          15.719     -13.965       0.827
 C          16.601      -5.202      -0.484
 C          14.471       1.152      -0.414
 C          14.289     -13.946       0.821
 C          15.849      -6.457      -0.516
 C          13.750      -0.102      -0.537
 C          13.541     -15.197       0.764
 C          14.395      -6.443      -0.547
 C          12.260      -0.102      -0.538
 C          12.102     -15.144       0.558
 C          20.954      -5.251       0.058
 C          18.879       1.065      -0.462
 C          18.632     -13.992       0.543
 C          20.259      -6.509       0.029
 C          18.147      -0.170      -0.430
 C          17.885     -15.210       0.615
 C          18.783      -6.482      -0.137
 C          16.657      -0.139      -0.479
 C          16.439     -15.231       0.788
 C          18.041      -7.732      -0.158
 C          15.670     -16.484       0.835
 C          16.551      -7.724      -0.223
 C          14.278     -16.465       0.818
 C          20.936      -7.789       0.109
 C          20.205      -9.009       0.139
 C          18.743      -8.995      -0.099
 C          20.865     -10.269       0.428
 C          20.141     -11.492       0.441
 C          11.449      -6.390      -0.301
 C          21.029       2.313      -0.038
 C          20.831     -12.794       0.436
 C          20.343       1.051      -0.236
 C          20.102     -13.979       0.447
 C          21.043      -0.183      -0.189
 C           9.975      -6.382      -0.200
 C          10.027      -3.842      -0.286
 C          10.046      -1.320      -0.374
 C           9.342      -2.565      -0.293
 C           9.313      -5.104      -0.207
 C           9.261      -7.642      -0.135
 C           9.363      -0.045      -0.400
