   142
 frame    767
 H          22.172       4.851      -0.067
 H          20.938       7.032      -0.099
 H          18.753       8.311      -0.074
 H          14.063       9.635      -0.055
 H          16.571       9.603      -0.037
 H           9.637       7.173      -0.196
 H           8.348       5.026      -0.217
 H          11.850       8.399      -0.126
 H           8.142     -10.125       0.251
 H           8.313       2.496      -0.186
 H           8.113     -12.652       0.384
 H           9.346     -14.828       0.525
 H          11.529     -16.106       0.629
 H          16.217     -17.428       0.736
 H          13.711     -17.396       0.717
 H          20.647     -14.970       0.637
 H          22.082      -2.727       0.249
 H          22.049      -5.248       0.355
 H          22.011      -7.770       0.426
 H          21.972     -10.296       0.489
 H          22.143       2.322       0.013
 H          21.936     -12.823       0.564
 H          18.431     -16.193       0.686
 H          22.114      -0.204       0.122
 H           8.238      -2.554      -0.062
 H           8.203      -5.077       0.031
 H           8.170      -7.600       0.134
 H           8.273      -0.032      -0.137
 C          18.868       3.611       0.343
 C          20.332       3.555       0.134
 C          21.052       4.852      -0.024
 C          16.691       4.910       0.494
 C          18.122       4.865       0.347
 C          18.865       6.082       0.029
 C          20.352       6.050      -0.126
 C          12.380       4.930       0.287
 C          13.807       4.943       0.455
 C          14.540       6.220       0.281
 C          16.000       6.199       0.299
 C          16.773       7.427       0.136
 C          18.208       7.331      -0.006
 C          11.683       6.181      -0.047
 C          12.363       7.406      -0.059
 C          13.802       7.467       0.115
 C          14.594       8.670       0.125
 C          16.015       8.650       0.129
 C           9.469       4.997      -0.141
 C          10.201       6.175      -0.219
 C          13.649      -7.649       0.521
 C          12.180      -7.648       0.493
 C          11.421      -8.880       0.600
 C           9.950      -8.859       0.496
 C          11.540      -1.293       0.239
 C           9.258     -10.101       0.458
 C          15.804      -8.946       0.727
 C          14.342      -8.928       0.697
 C          15.910      -1.405       0.322
 C          13.586     -10.165       0.888
 C          14.438      -1.381       0.295
 C          12.126     -10.146       0.717
 C          13.660      -2.618       0.520
 C          11.603       3.700       0.238
 C          11.397     -11.387       0.763
 C          12.205      -2.609       0.323
 C          10.145       3.675       0.001
 C           9.942     -11.337       0.519
 C          11.452      -3.842       0.267
 C           9.427       2.470       0.000
 C           9.225     -12.646       0.458
 C          20.279      -1.426       0.293
 C          17.980     -10.220       0.839
 C          18.807      -1.394       0.391
 C          16.516     -10.203       0.948
 C          18.100      -2.681       0.478
 C          15.961       3.647       0.571
 C          15.760     -11.420       1.090
 C          16.638      -2.650       0.583
 C          14.503       3.663       0.541
 C          14.308     -11.394       1.060
 C          13.764       2.430       0.442
 C          13.575     -12.668       1.038
 C          15.877      -3.889       0.705
 C          14.376      -3.873       0.669
 C          12.298       2.435       0.269
 C          12.147     -12.637       0.864
 C          13.622      -5.120       0.633
 C          11.554       1.198       0.231
 C          11.405     -13.881       0.590
 C          12.169      -5.095       0.451
 C          10.083       1.204       0.139
 C           9.924     -13.849       0.431
 C          20.983      -2.695       0.241
 C          18.666     -11.480       0.879
 C          20.312      -3.961       0.308
 C          18.144       2.362       0.352
 C          17.887     -12.714       0.950
 C          18.820      -3.936       0.456
 C          16.676       2.393       0.478
 C          16.463     -12.707       1.096
 C          18.066      -5.167       0.584
 C          15.932       1.149       0.348
 C          15.740     -13.987       0.958
 C          16.610      -5.153       0.690
 C          14.480       1.170       0.323
 C          14.264     -13.975       0.943
 C          15.837      -6.408       0.550
 C          13.755      -0.097       0.228
 C          13.495     -15.210       0.822
 C          14.374      -6.391       0.513
 C          12.296      -0.066       0.206
 C          12.059     -15.131       0.642
 C          20.954      -5.247       0.344
 C          18.857       1.100       0.355
 C          18.607     -13.974       0.686
 C          20.219      -6.492       0.484
 C          18.095      -0.133       0.325
 C          17.924     -15.203       0.699
 C          18.745      -6.474       0.591
 C          16.628      -0.132       0.275
 C          16.491     -15.243       0.860
 C          17.992      -7.717       0.631
 C          15.688     -16.452       0.883
 C          16.522      -7.687       0.575
 C          14.267     -16.435       0.874
 C          20.897      -7.757       0.546
 C          20.192      -8.987       0.703
 C          18.722      -8.978       0.755
 C          20.855     -10.253       0.655
 C          20.137     -11.471       0.677
 C          11.470      -6.390       0.414
 C          21.027       2.320       0.180
 C          20.822     -12.791       0.608
 C          20.329       1.083       0.314
 C          20.094     -13.977       0.542
 C          20.996      -0.174       0.232
 C           9.996      -6.362       0.254
 C           9.969      -3.832       0.054
 C          10.068      -1.298       0.082
 C           9.337      -2.547      -0.021
 C           9.302      -5.098       0.068
 C           9.280      -7.612       0.291
 C           9.383      -0.032       0.038
