   142
 frame    908
 H          22.172       4.851      -0.067
 H          20.938       7.032      -0.099
 H          18.753       8.311      -0.074
 H          14.063       9.635      -0.055
 H          16.571       9.603      -0.037
 H           9.637       7.173      -0.196
 H           8.348       5.026      -0.217
 H          11.850       8.399      -0.126
 H           8.142     -10.125       0.251
 H           8.313       2.496      -0.186
 H           8.113     -12.652       0.384
 H           9.346     -14.828       0.525
 H          11.529     -16.106       0.629
 H          16.217     -17.428       0.736
 H          13.711     -17.396       0.717
 H          20.647     -14.970       0.637
 H          22.082      -2.727       0.249
 H          22.049      -5.248       0.355
 H          22.011      -7.770       0.426
 H          21.972     -10.296       0.489
 H          22.143       2.322       0.013
 H          21.936     -12.823       0.564
 H          18.431     -16.193       0.686
 H          22.114      -0.204       0.122
 H           8.238      -2.554      -0.062
 H           8.203      -5.077       0.031
 H           8.170      -7.600       0.134
 H           8.273      -0.032      -0.137
 C          18.876       3.618       0.199
 C          20.333       3.615       0.197
 C          21.050       4.891      -0.004
 C          16.694       4.908       0.018
 C          18.153       4.881       0.020
 C          18.905       6.133      -0.043
 C          20.362       6.090      -0.031
 C          12.366       4.955      -0.057
 C          13.823       4.952      -0.029
 C          14.547       6.187      -0.011
 C          16.002       6.161       0.004
 C          16.762       7.400      -0.205
 C          18.203       7.380      -0.184
 C          11.654       6.232      -0.122
 C          12.377       7.461      -0.241
 C          13.821       7.436      -0.237
 C          14.612       8.696      -0.190
 C          16.000       8.680      -0.185
 C           9.469       5.041      -0.138
 C          10.193       6.221      -0.148
 C          13.651      -7.604       0.756
 C          12.161      -7.616       0.792
 C          11.422      -8.888       0.760
 C           9.939      -8.867       0.598
 C          11.534      -1.343       0.531
 C           9.239     -10.133       0.533
 C          15.797      -8.894       0.678
 C          14.328      -8.876       0.667
 C          15.881      -1.395       0.781
 C          13.600     -10.147       0.590
 C          14.447      -1.377       0.768
 C          12.134     -10.144       0.734
 C          13.670      -2.573       1.087
 C          11.607       3.716       0.106
 C          11.404     -11.405       0.626
 C          12.227      -2.600       0.826
 C          10.153       3.750       0.055
 C           9.937     -11.400       0.592
 C          11.502      -3.826       0.829
 C           9.417       2.507       0.084
 C           9.225     -12.684       0.478
 C          20.288      -1.416       0.507
 C          17.972     -10.217       0.821
 C          18.799      -1.432       0.688
 C          16.510     -10.177       0.627
 C          18.062      -2.670       0.943
 C          15.958       3.643       0.066
 C          15.756     -11.446       0.584
 C          16.607      -2.612       1.136
 C          14.523       3.665       0.048
 C          14.321     -11.428       0.558
 C          13.781       2.401       0.151
 C          13.589     -12.700       0.553
 C          15.869      -3.870       1.457
 C          14.370      -3.846       1.433
 C          12.309       2.451       0.287
 C          12.135     -12.676       0.536
 C          13.646      -5.118       1.178
 C          11.560       1.221       0.374
 C          11.383     -13.933       0.540
 C          12.206      -5.075       0.897
 C          10.083       1.225       0.242
 C           9.920     -13.883       0.551
 C          20.980      -2.701       0.476
 C          18.673     -11.496       0.729
 C          20.239      -3.950       0.722
 C          18.132       2.383       0.372
 C          17.908     -12.744       0.605
 C          18.742      -3.919       0.991
 C          16.667       2.367       0.195
 C          16.453     -12.735       0.589
 C          18.020      -5.149       1.026
 C          15.932       1.099       0.322
 C          15.735     -13.969       0.656
 C          16.569      -5.159       1.237
 C          14.474       1.117       0.299
 C          14.283     -13.951       0.625
 C          15.816      -6.373       0.949
 C          13.748      -0.123       0.509
 C          13.522     -15.203       0.473
 C          14.379      -6.351       0.925
 C          12.265      -0.070       0.525
 C          12.076     -15.179       0.492
 C          20.940      -5.231       0.576
 C          18.843       1.128       0.509
 C          18.638     -14.021       0.623
 C          20.214      -6.478       0.693
 C          18.100      -0.147       0.638
 C          17.909     -15.254       0.537
 C          18.731      -6.411       0.856
 C          16.622      -0.162       0.559
 C          16.460     -15.237       0.495
 C          18.005      -7.682       0.909
 C          15.673     -16.484       0.558
 C          16.514      -7.639       0.815
 C          14.279     -16.467       0.547
 C          20.891      -7.767       0.636
 C          20.190      -8.999       0.792
 C          18.708      -8.971       0.886
 C          20.867     -10.287       0.729
 C          20.133     -11.530       0.739
 C          11.458      -6.323       0.698
 C          21.037       2.356       0.258
 C          20.811     -12.826       0.622
 C          20.332       1.104       0.424
 C          20.097     -14.011       0.662
 C          21.001      -0.159       0.323
 C           9.985      -6.358       0.476
 C          10.024      -3.824       0.490
 C          10.058      -1.285       0.287
 C           9.332      -2.554       0.226
 C           9.293      -5.086       0.313
 C           9.279      -7.624       0.390
 C           9.380      -0.015       0.111
