   142
 frame    836
 H          22.172       4.851      -0.067
 H          20.938       7.032      -0.099
 H          18.753       8.311      -0.074
 H          14.063       9.635      -0.055
 H          16.571       9.603      -0.037
 H           9.637       7.173      -0.196
 H           8.348       5.026      -0.217
 H          11.850       8.399      -0.126
 H           8.142     -10.125       0.251
 H           8.313       2.496      -0.186
 H           8.113     -12.652       0.384
 H           9.346     -14.828       0.525
 H          11.529     -16.106       0.629
 H          16.217     -17.428       0.736
 H          13.711     -17.396       0.717
 H          20.647     -14.970       0.637
 H          22.082      -2.727       0.249
 H          22.049      -5.248       0.355
 H          22.011      -7.770       0.426
 H          21.972     -10.296       0.489
 H          22.143       2.322       0.013
 H          21.936     -12.823       0.564
 H          18.431     -16.193       0.686
 H          22.114      -0.204       0.122
 H           8.238      -2.554      -0.062
 H           8.203      -5.077       0.031
 H           8.170      -7.600       0.134
 H           8.273      -0.032      -0.137
 C          18.828       3.575       0.062
 C          20.300       3.538      -0.034
 C          21.030       4.836      -0.031
 C          16.716       4.867       0.024
 C          18.159       4.863       0.081
 C          18.904       6.134       0.088
 C          20.367       6.057       0.047
 C          12.349       4.944       0.003
 C          13.792       4.904      -0.010
 C          14.548       6.151      -0.093
 C          15.994       6.127      -0.073
 C          16.759       7.386      -0.034
 C          18.210       7.361       0.012
 C          11.636       6.230       0.012
 C          12.372       7.427      -0.037
 C          13.824       7.418      -0.046
 C          14.606       8.657      -0.092
 C          16.008       8.639      -0.077
 C           9.482       4.978      -0.165
 C          10.172       6.182      -0.050
 C          13.589      -7.647       1.052
 C          12.142      -7.623       0.823
 C          11.449      -8.866       0.676
 C           9.955      -8.859       0.420
 C          11.493      -1.329       0.389
 C           9.257     -10.124       0.258
 C          15.801      -8.898       1.300
 C          14.314      -8.883       1.265
 C          15.901      -1.352       0.764
 C          13.631     -10.132       0.969
 C          14.435      -1.330       0.730
 C          12.196     -10.119       0.703
 C          13.706      -2.600       0.566
 C          11.649       3.665      -0.029
 C          11.440     -11.365       0.469
 C          12.225      -2.595       0.460
 C          10.183       3.662      -0.172
 C           9.983     -11.341       0.333
 C          11.505      -3.847       0.385
 C           9.434       2.468      -0.161
 C           9.258     -12.636       0.430
 C          20.314      -1.425       0.452
 C          17.905     -10.194       0.804
 C          18.851      -1.418       0.565
 C          16.458     -10.168       1.009
 C          18.082      -2.667       0.591
 C          15.966       3.618       0.210
 C          15.759     -11.432       0.743
 C          16.601      -2.632       0.622
 C          14.506       3.641       0.180
 C          14.308     -11.414       0.726
 C          13.805       2.393       0.510
 C          13.547     -12.665       0.596
 C          15.864      -3.899       0.730
 C          14.392      -3.883       0.705
 C          12.367       2.409       0.256
 C          12.106     -12.656       0.595
 C          13.659      -5.159       0.662
 C          11.594       1.174       0.307
 C          11.367     -13.924       0.686
 C          12.186      -5.124       0.555
 C          10.109       1.185       0.057
 C           9.913     -13.850       0.613
 C          20.991      -2.697       0.472
 C          18.636     -11.457       0.582
 C          20.254      -3.948       0.579
 C          18.078       2.341       0.355
 C          17.932     -12.723       0.682
 C          18.771      -3.940       0.550
 C          16.634       2.364       0.556
 C          16.492     -12.697       0.632
 C          18.046      -5.191       0.698
 C          15.935       1.123       0.928
 C          15.733     -13.937       0.598
 C          16.578      -5.188       0.720
 C          14.440       1.146       0.905
 C          14.281     -13.924       0.576
 C          15.830      -6.439       0.948
 C          13.695      -0.085       0.781
 C          13.523     -15.180       0.660
 C          14.361      -6.424       0.910
 C          12.252      -0.090       0.545
 C          12.078     -15.148       0.685
 C          20.952      -5.229       0.573
 C          18.817       1.090       0.448
 C          18.640     -14.013       0.765
 C          20.244      -6.485       0.658
 C          18.117      -0.152       0.671
 C          17.905     -15.220       0.743
 C          18.781      -6.449       0.756
 C          16.666      -0.115       0.839
 C          16.462     -15.216       0.675
 C          18.019      -7.689       0.952
 C          15.680     -16.452       0.656
 C          16.562      -7.680       1.122
 C          14.276     -16.430       0.653
 C          20.916      -7.760       0.563
 C          20.180      -8.983       0.625
 C          18.686      -8.959       0.827
 C          20.856     -10.267       0.462
 C          20.107     -11.465       0.491
 C          11.413      -6.365       0.596
 C          21.015       2.323       0.024
 C          20.796     -12.769       0.603
 C          20.307       1.063       0.227
 C          20.106     -13.972       0.741
 C          21.022      -0.173       0.269
 C           9.960      -6.353       0.429
 C          10.017      -3.826       0.348
 C          10.038      -1.299       0.247
 C           9.325      -2.553       0.207
 C           9.290      -5.086       0.315
 C           9.260      -7.615       0.329
 C           9.364      -0.031       0.060
