   142
 frame    851
 H          22.172       4.851      -0.067
 H          20.938       7.032      -0.099
 H          18.753       8.311      -0.074
 H          14.063       9.635      -0.055
 H          16.571       9.603      -0.037
 H           9.637       7.173      -0.196
 H           8.348       5.026      -0.217
 H          11.850       8.399      -0.126
 H           8.142     -10.125       0.251
 H           8.313       2.496      -0.186
 H           8.113     -12.652       0.384
 H           9.346     -14.828       0.525
 H          11.529     -16.106       0.629
 H          16.217     -17.428       0.736
 H          13.711     -17.396       0.717
 H          20.647     -14.970       0.637
 H          22.082      -2.727       0.249
 H          22.049      -5.248       0.355
 H          22.011      -7.770       0.426
 H          21.972     -10.296       0.489
 H          22.143       2.322       0.013
 H          21.936     -12.823       0.564
 H          18.431     -16.193       0.686
 H          22.114      -0.204       0.122
 H           8.238      -2.554      -0.062
 H           8.203      -5.077       0.031
 H           8.170      -7.600       0.134
 H           8.273      -0.032      -0.137
 C          18.868       3.581       0.175
 C          20.348       3.598       0.063
 C          21.057       4.898      -0.135
 C          16.712       4.826       0.014
 C          18.177       4.845       0.115
 C          18.896       6.134       0.067
 C          20.379       6.107      -0.061
 C          12.328       4.919       0.036
 C          13.801       4.866      -0.020
 C          14.536       6.079      -0.227
 C          16.012       6.068      -0.214
 C          16.737       7.352      -0.153
 C          18.158       7.354      -0.033
 C          11.642       6.217      -0.011
 C          12.411       7.429      -0.076
 C          13.830       7.392      -0.180
 C          14.604       8.659       0.015
 C          15.999       8.641       0.023
 C           9.461       5.043      -0.262
 C          10.169       6.235      -0.146
 C          13.588      -7.623       1.061
 C          12.127      -7.609       0.876
 C          11.410      -8.882       0.658
 C           9.988      -8.872       0.441
 C          11.541      -1.360       0.525
 C           9.263     -10.150       0.397
 C          15.788      -8.910       1.160
 C          14.329      -8.889       1.116
 C          15.893      -1.373       0.750
 C          13.601     -10.121       0.888
 C          14.432      -1.357       0.707
 C          12.150     -10.123       0.600
 C          13.727      -2.609       0.689
 C          11.608       3.665       0.050
 C          11.407     -11.371       0.591
 C          12.296      -2.604       0.517
 C          10.132       3.727      -0.064
 C           9.922     -11.391       0.450
 C          11.546      -3.852       0.486
 C           9.439       2.500      -0.041
 C           9.217     -12.704       0.333
 C          20.288      -1.461       0.496
 C          17.956     -10.191       0.703
 C          18.789      -1.440       0.674
 C          16.499     -10.161       0.934
 C          18.004      -2.662       0.654
 C          15.956       3.600       0.246
 C          15.760     -11.401       0.771
 C          16.570      -2.642       0.757
 C          14.517       3.618       0.226
 C          14.309     -11.388       0.758
 C          13.768       2.391       0.444
 C          13.571     -12.620       0.586
 C          15.856      -3.893       0.875
 C          14.401      -3.877       0.851
 C          12.323       2.408       0.150
 C          12.099     -12.636       0.631
 C          13.697      -5.130       0.802
 C          11.552       1.192       0.288
 C          11.383     -13.921       0.641
 C          12.259      -5.104       0.619
 C          10.115       1.213       0.083
 C           9.897     -13.900       0.508
 C          20.957      -2.723       0.426
 C          18.671     -11.455       0.707
 C          20.224      -3.959       0.530
 C          18.118       2.339       0.259
 C          17.945     -12.706       0.709
 C          18.727      -3.932       0.658
 C          16.657       2.348       0.500
 C          16.472     -12.660       0.634
 C          17.970      -5.181       0.743
 C          15.932       1.130       0.789
 C          15.743     -13.893       0.443
 C          16.524      -5.168       0.844
 C          14.471       1.144       0.756
 C          14.274     -13.871       0.437
 C          15.819      -6.418       0.917
 C          13.699      -0.107       0.802
 C          13.543     -15.157       0.537
 C          14.363      -6.403       0.890
 C          12.236      -0.087       0.591
 C          12.115     -15.154       0.633
 C          20.927      -5.215       0.518
 C          18.852       1.102       0.417
 C          18.627     -14.015       0.730
 C          20.217      -6.447       0.692
 C          18.129      -0.160       0.714
 C          17.863     -15.221       0.686
 C          18.728      -6.427       0.867
 C          16.661      -0.141       0.873
 C          16.443     -15.193       0.565
 C          18.029      -7.685       1.007
 C          15.671     -16.451       0.770
 C          16.564      -7.664       1.137
 C          14.276     -16.436       0.761
 C          20.889      -7.737       0.602
 C          20.155      -8.995       0.634
 C          18.719      -8.973       0.799
 C          20.848     -10.288       0.597
 C          20.153     -11.511       0.613
 C          11.471      -6.328       0.702
 C          21.019       2.354       0.125
 C          20.824     -12.850       0.473
 C          20.291       1.088       0.260
 C          20.112     -14.033       0.627
 C          20.982      -0.198       0.302
 C           9.979      -6.321       0.476
 C          10.054      -3.834       0.298
 C          10.047      -1.343       0.284
 C           9.349      -2.578       0.180
 C           9.319      -5.074       0.251
 C           9.288      -7.595       0.362
 C           9.393      -0.052       0.093
