   142
 frame    656
 H          22.172       4.851      -0.067
 H          20.938       7.032      -0.099
 H          18.753       8.311      -0.074
 H          14.063       9.635      -0.055
 H          16.571       9.603      -0.037
 H           9.637       7.173      -0.196
 H           8.348       5.026      -0.217
 H          11.850       8.399      -0.126
 H           8.142     -10.125       0.251
 H           8.313       2.496      -0.186
 H           8.113     -12.652       0.384
 H           9.346     -14.828       0.525
 H          11.529     -16.106       0.629
 H          16.217     -17.428       0.736
 H          13.711     -17.396       0.717
 H          20.647     -14.970       0.637
 H          22.082      -2.727       0.249
 H          22.049      -5.248       0.355
 H          22.011      -7.770       0.426
 H          21.972     -10.296       0.489
 H          22.143       2.322       0.013
 H          21.936     -12.823       0.564
 H          18.431     -16.193       0.686
 H          22.114      -0.204       0.122
 H           8.238      -2.554      -0.062
 H           8.203      -5.077       0.031
 H           8.170      -7.600       0.134
 H           8.273      -0.032      -0.137
 C          18.834       3.596       0.090
 C          20.331       3.594       0.027
 C          21.047       4.879      -0.024
 C          16.683       4.868       0.333
 C          18.109       4.841       0.159
 C          18.882       6.125       0.098
 C          20.356       6.083      -0.003
 C          12.393       4.914       0.110
 C          13.831       4.905       0.308
 C          14.542       6.157       0.357
 C          15.998       6.141       0.362
 C          16.753       7.386       0.239
 C          18.193       7.367       0.141
 C          11.664       6.220       0.050
 C          12.383       7.441       0.104
 C          13.823       7.423       0.202
 C          14.604       8.652       0.034
 C          16.007       8.636       0.045
 C           9.468       5.021      -0.158
 C          10.192       6.211      -0.102
 C          13.665      -7.713       0.203
 C          12.203      -7.680       0.282
 C          11.431      -8.875       0.534
 C           9.949      -8.884       0.420
 C          11.562      -1.321      -0.062
 C           9.254     -10.152       0.357
 C          15.803      -8.943       0.613
 C          14.345      -8.920       0.583
 C          15.918      -1.382      -0.102
 C          13.562     -10.137       0.796
 C          14.447      -1.361      -0.136
 C          12.127     -10.135       0.667
 C          13.726      -2.617      -0.022
 C          11.643       3.690      -0.003
 C          11.446     -11.389       0.502
 C          12.275      -2.600      -0.107
 C          10.148       3.724      -0.115
 C           9.949     -11.388       0.407
 C          11.548      -3.854      -0.038
 C           9.425       2.506      -0.077
 C           9.239     -12.676       0.451
 C          20.274      -1.428       0.139
 C          17.972     -10.203       0.768
 C          18.796      -1.414       0.075
 C          16.537     -10.175       0.859
 C          18.055      -2.669       0.008
 C          15.978       3.601       0.400
 C          15.770     -11.394       0.928
 C          16.600      -2.656       0.037
 C          14.492       3.618       0.399
 C          14.292     -11.376       0.903
 C          13.725       2.397       0.374
 C          13.584     -12.646       0.897
 C          15.870      -3.915       0.177
 C          14.428      -3.901       0.148
 C          12.295       2.419       0.234
 C          12.158     -12.624       0.687
 C          13.692      -5.166       0.095
 C          11.564       1.171       0.181
 C          11.400     -13.910       0.673
 C          12.241      -5.150      -0.011
 C          10.088       1.219       0.051
 C           9.934     -13.875       0.551
 C          20.961      -2.681       0.276
 C          18.631     -11.480       0.617
 C          20.231      -3.960       0.225
 C          18.150       2.352       0.315
 C          17.885     -12.699       0.754
 C          18.745      -3.948       0.118
 C          16.710       2.367       0.411
 C          16.458     -12.674       0.930
 C          18.021      -5.219       0.110
 C          15.945       1.124       0.254
 C          15.734     -13.933       0.993
 C          16.561      -5.201       0.156
 C          14.484       1.145       0.232
 C          14.274     -13.910       0.982
 C          15.845      -6.466       0.071
 C          13.763      -0.060      -0.076
 C          13.522     -15.166       0.896
 C          14.375      -6.449       0.056
 C          12.295      -0.059       0.001
 C          12.079     -15.151       0.793
 C          20.925      -5.259       0.370
 C          18.851       1.080       0.283
 C          18.611     -14.000       0.752
 C          20.207      -6.503       0.345
 C          18.098      -0.132       0.086
 C          17.904     -15.221       0.853
 C          18.728      -6.487       0.275
 C          16.625      -0.108      -0.029
 C          16.463     -15.206       0.918
 C          17.986      -7.755       0.399
 C          15.679     -16.439       0.776
 C          16.522      -7.748       0.267
 C          14.273     -16.415       0.761
 C          20.891      -7.782       0.478
 C          20.199      -9.015       0.616
 C          18.713      -8.971       0.679
 C          20.859     -10.298       0.569
 C          20.116     -11.516       0.564
 C          11.493      -6.397       0.135
 C          21.029       2.358       0.083
 C          20.806     -12.816       0.588
 C          20.327       1.097       0.225
 C          20.091     -14.002       0.668
 C          20.990      -0.157       0.175
 C          10.012      -6.371       0.104
 C          10.064      -3.843      -0.010
 C          10.085      -1.305      -0.066
 C           9.358      -2.539       0.015
 C           9.319      -5.119       0.100
 C           9.292      -7.634       0.224
 C           9.393      -0.016      -0.059
