   142
 frame    130
 H          22.172       4.851      -0.067
 H          20.938       7.032      -0.099
 H          18.753       8.311      -0.074
 H          14.063       9.635      -0.055
 H          16.571       9.603      -0.037
 H           9.637       7.173      -0.196
 H           8.348       5.026      -0.217
 H          11.850       8.399      -0.126
 H           8.142     -10.125       0.251
 H           8.313       2.496      -0.186
 H           8.113     -12.652       0.384
 H           9.346     -14.828       0.525
 H          11.529     -16.106       0.629
 H          16.217     -17.428       0.736
 H          13.711     -17.396       0.717
 H          20.647     -14.970       0.637
 H          22.082      -2.727       0.249
 H          22.049      -5.248       0.355
 H          22.011      -7.770       0.426
 H          21.972     -10.296       0.489
 H          22.143       2.322       0.013
 H          21.936     -12.823       0.564
 H          18.431     -16.193       0.686
 H          22.114      -0.204       0.122
 H           8.238      -2.554      -0.062
 H           8.203      -5.077       0.031
 H           8.170      -7.600       0.134
 H           8.273      -0.032      -0.137
 C          18.891       3.615       0.146
 C          20.361       3.590       0.195
 C          21.063       4.857      -0.054
 C          16.724       4.885       0.125
 C          18.168       4.886       0.135
 C          18.902       6.124      -0.120
 C          20.392       6.061      -0.251
 C          12.348       4.955       0.056
 C          13.793       4.917       0.097
 C          14.545       6.144      -0.011
 C          16.006       6.126       0.005
 C          16.737       7.378      -0.126
 C          18.176       7.359      -0.200
 C          11.651       6.213      -0.191
 C          12.404       7.428      -0.239
 C          13.841       7.412      -0.151
 C          14.607       8.660      -0.123
 C          15.997       8.644      -0.115
 C           9.457       5.001      -0.166
 C          10.165       6.186      -0.334
 C          13.644      -7.681      -0.082
 C          12.166      -7.643      -0.029
 C          11.442      -8.901       0.150
 C           9.971      -8.876       0.255
 C          11.526      -1.375      -0.409
 C           9.237     -10.135       0.441
 C          15.804      -8.965       0.102
 C          14.360      -8.951       0.073
 C          15.934      -1.404      -0.495
 C          13.611     -10.194       0.239
 C          14.456      -1.382      -0.531
 C          12.135     -10.170       0.278
 C          13.740      -2.633      -0.439
 C          11.593       3.699       0.052
 C          11.399     -11.402       0.575
 C          12.245      -2.624      -0.444
 C          10.118       3.711       0.057
 C           9.926     -11.372       0.583
 C          11.500      -3.884      -0.465
 C           9.406       2.480       0.001
 C           9.234     -12.658       0.433
 C          20.317      -1.462      -0.173
 C          17.987     -10.245       0.385
 C          18.841      -1.467      -0.260
 C          16.512     -10.228       0.285
 C          18.098      -2.698      -0.322
 C          15.973       3.639       0.024
 C          15.767     -11.449       0.549
 C          16.607      -2.671      -0.400
 C          14.512       3.658       0.007
 C          14.312     -11.431       0.527
 C          13.775       2.422      -0.199
 C          13.564     -12.675       0.692
 C          15.871      -3.933      -0.469
 C          14.443      -3.919      -0.500
 C          12.293       2.431      -0.153
 C          12.118     -12.679       0.663
 C          13.704      -5.172      -0.355
 C          11.576       1.169      -0.201
 C          11.388     -13.924       0.471
 C          12.204      -5.142      -0.345
 C          10.106       1.195      -0.102
 C           9.910     -13.871       0.318
 C          21.021      -2.725      -0.174
 C          18.679     -11.498       0.685
 C          20.304      -3.990      -0.181
 C          18.169       2.361      -0.081
 C          17.931     -12.756       0.735
 C          18.808      -3.968      -0.302
 C          16.684       2.383      -0.145
 C          16.484     -12.718       0.732
 C          18.062      -5.215      -0.223
 C          15.939       1.133      -0.265
 C          15.739     -13.958       0.664
 C          16.573      -5.206      -0.304
 C          14.496       1.151      -0.281
 C          14.280     -13.933       0.646
 C          15.863      -6.470      -0.316
 C          13.746      -0.119      -0.363
 C          13.540     -15.188       0.550
 C          14.390      -6.452      -0.333
 C          12.273      -0.119      -0.297
 C          12.105     -15.160       0.461
 C          20.985      -5.253      -0.062
 C          18.856       1.080      -0.084
 C          18.635     -14.017       0.555
 C          20.239      -6.500       0.011
 C          18.122      -0.192      -0.197
 C          17.882     -15.232       0.519
 C          18.774      -6.468      -0.068
 C          16.664      -0.152      -0.321
 C          16.447     -15.230       0.578
 C          18.023      -7.718       0.079
 C          15.667     -16.470       0.628
 C          16.560      -7.718      -0.016
 C          14.279     -16.450       0.616
 C          20.905      -7.772       0.253
 C          20.179      -9.007       0.454
 C          18.715      -8.988       0.284
 C          20.870     -10.285       0.631
 C          20.149     -11.507       0.734
 C          11.464      -6.378      -0.220
 C          21.045       2.341       0.181
 C          20.815     -12.806       0.592
 C          20.316       1.073       0.067
 C          20.114     -13.998       0.441
 C          21.008      -0.190      -0.030
 C           9.992      -6.368      -0.210
 C          10.003      -3.858      -0.416
 C          10.051      -1.336      -0.384
 C           9.315      -2.583      -0.421
 C           9.278      -5.111      -0.332
 C           9.277      -7.633       0.003
 C           9.379      -0.043      -0.263
