   142
 frame    611
 H          22.172       4.851      -0.067
 H          20.938       7.032      -0.099
 H          18.753       8.311      -0.074
 H          14.063       9.635      -0.055
 H          16.571       9.603      -0.037
 H           9.637       7.173      -0.196
 H           8.348       5.026      -0.217
 H          11.850       8.399      -0.126
 H           8.142     -10.125       0.251
 H           8.313       2.496      -0.186
 H           8.113     -12.652       0.384
 H           9.346     -14.828       0.525
 H          11.529     -16.106       0.629
 H          16.217     -17.428       0.736
 H          13.711     -17.396       0.717
 H          20.647     -14.970       0.637
 H          22.082      -2.727       0.249
 H          22.049      -5.248       0.355
 H          22.011      -7.770       0.426
 H          21.972     -10.296       0.489
 H          22.143       2.322       0.013
 H          21.936     -12.823       0.564
 H          18.431     -16.193       0.686
 H          22.114      -0.204       0.122
 H           8.238      -2.554      -0.062
 H           8.203      -5.077       0.031
 H           8.170      -7.600       0.134
 H           8.273      -0.032      -0.137
 C          18.891       3.606       0.109
 C          20.350       3.553      -0.034
 C          21.065       4.831      -0.123
 C          16.701       4.891       0.220
 C          18.148       4.855       0.044
 C          18.931       6.099      -0.213
 C          20.408       6.050      -0.185
 C          12.360       4.932      -0.020
 C          13.819       4.923       0.169
 C          14.533       6.178       0.105
 C          16.012       6.165       0.109
 C          16.799       7.387      -0.053
 C          18.235       7.340      -0.208
 C          11.619       6.187      -0.285
 C          12.346       7.410      -0.253
 C          13.778       7.419      -0.075
 C          14.593       8.644      -0.060
 C          16.010       8.630      -0.060
 C           9.455       4.977      -0.240
 C          10.135       6.184      -0.295
 C          13.631      -7.599       0.348
 C          12.170      -7.593       0.196
 C          11.399      -8.831       0.302
 C           9.934      -8.836       0.247
 C          11.518      -1.364      -0.071
 C           9.260     -10.107       0.238
 C          15.802      -8.866       0.536
 C          14.347      -8.852       0.515
 C          15.916      -1.423       0.085
 C          13.594     -10.114       0.692
 C          14.438      -1.409       0.055
 C          12.093     -10.114       0.573
 C          13.686      -2.653      -0.203
 C          11.588       3.694       0.034
 C          11.390     -11.390       0.524
 C          12.226      -2.630      -0.175
 C          10.132       3.677      -0.152
 C           9.935     -11.351       0.347
 C          11.469      -3.855      -0.147
 C           9.430       2.447      -0.183
 C           9.224     -12.645       0.344
 C          20.318      -1.451       0.057
 C          18.017     -10.188       0.671
 C          18.836      -1.453       0.079
 C          16.518     -10.155       0.733
 C          18.106      -2.697      -0.066
 C          15.968       3.609       0.326
 C          15.767     -11.401       0.810
 C          16.644      -2.683      -0.168
 C          14.507       3.626       0.306
 C          14.307     -11.378       0.789
 C          13.759       2.377       0.268
 C          13.580     -12.669       0.737
 C          15.904      -3.931      -0.391
 C          14.402      -3.912      -0.411
 C          12.267       2.401       0.143
 C          12.129     -12.654       0.549
 C          13.653      -5.130      -0.118
 C          11.528       1.121      -0.037
 C          11.358     -13.901       0.358
 C          12.192      -5.118      -0.099
 C          10.064       1.155      -0.107
 C           9.876     -13.864       0.364
 C          20.999      -2.707       0.041
 C          18.684     -11.486       0.632
 C          20.290      -3.972      -0.044
 C          18.183       2.330       0.228
 C          17.915     -12.730       0.627
 C          18.822      -3.954      -0.003
 C          16.681       2.343       0.312
 C          16.468     -12.712       0.794
 C          18.066      -5.186       0.027
 C          15.938       1.062       0.185
 C          15.750     -13.972       0.766
 C          16.609      -5.169      -0.060
 C          14.479       1.083       0.161
 C          14.265     -13.945       0.740
 C          15.851      -6.387       0.273
 C          13.736      -0.158       0.078
 C          13.476     -15.178       0.646
 C          14.362      -6.372       0.251
 C          12.266      -0.136      -0.061
 C          12.044     -15.140       0.465
 C          20.954      -5.249       0.152
 C          18.890       1.029       0.082
 C          18.655     -13.999       0.443
 C          20.241      -6.486       0.261
 C          18.117      -0.212       0.057
 C          17.943     -15.219       0.517
 C          18.766      -6.437       0.244
 C          16.638      -0.192       0.124
 C          16.510     -15.213       0.679
 C          18.012      -7.662       0.314
 C          15.681     -16.432       0.702
 C          16.540      -7.630       0.404
 C          14.261     -16.417       0.689
 C          20.921      -7.737       0.458
 C          20.218      -8.965       0.429
 C          18.755      -8.920       0.447
 C          20.863     -10.252       0.426
 C          20.138     -11.475       0.495
 C          11.450      -6.350       0.107
 C          21.020       2.301      -0.033
 C          20.827     -12.775       0.501
 C          20.349       1.026       0.059
 C          20.148     -13.984       0.493
 C          21.027      -0.210       0.164
 C           9.976      -6.359       0.038
 C          10.012      -3.844      -0.265
 C          10.037      -1.327      -0.131
 C           9.325      -2.562      -0.205
 C           9.306      -5.107      -0.101
 C           9.258      -7.588       0.231
 C           9.352      -0.064      -0.026
