   142
 frame    985
 H          22.172       4.851      -0.067
 H          20.938       7.032      -0.099
 H          18.753       8.311      -0.074
 H          14.063       9.635      -0.055
 H          16.571       9.603      -0.037
 H           9.637       7.173      -0.196
 H           8.348       5.026      -0.217
 H          11.850       8.399      -0.126
 H           8.142     -10.125       0.251
 H           8.313       2.496      -0.186
 H           8.113     -12.652       0.384
 H           9.346     -14.828       0.525
 H          11.529     -16.106       0.629
 H          16.217     -17.428       0.736
 H          13.711     -17.396       0.717
 H          20.647     -14.970       0.637
 H          22.082      -2.727       0.249
 H          22.049      -5.248       0.355
 H          22.011      -7.770       0.426
 H          21.972     -10.296       0.489
 H          22.143       2.322       0.013
 H          21.936     -12.823       0.564
 H          18.431     -16.193       0.686
 H          22.114      -0.204       0.122
 H           8.238      -2.554      -0.062
 H           8.203      -5.077       0.031
 H           8.170      -7.600       0.134
 H           8.273      -0.032      -0.137
 C          18.884       3.582      -0.070
 C          20.342       3.590      -0.048
 C          21.043       4.893      -0.042
 C          16.694       4.854       0.133
 C          18.147       4.849       0.007
 C          18.855       6.158      -0.148
 C          20.321       6.094      -0.107
 C          12.364       4.916      -0.050
 C          13.816       4.893       0.093
 C          14.542       6.134       0.174
 C          16.005       6.104       0.185
 C          16.739       7.377       0.057
 C          18.152       7.389      -0.100
 C          11.690       6.253      -0.217
 C          12.426       7.462      -0.134
 C          13.842       7.417       0.031
 C          14.608       8.668      -0.030
 C          16.001       8.655      -0.023
 C           9.475       5.049      -0.171
 C          10.227       6.233      -0.196
 C          13.628      -7.632       0.918
 C          12.180      -7.646       0.782
 C          11.462      -8.882       0.483
 C           9.995      -8.858       0.301
 C          11.533      -1.323       0.556
 C           9.273     -10.124       0.246
 C          15.796      -8.916       0.842
 C          14.337      -8.896       0.813
 C          15.886      -1.397       0.755
 C          13.589     -10.135       0.567
 C          14.431      -1.380       0.733
 C          12.155     -10.116       0.403
 C          13.711      -2.618       0.852
 C          11.600       3.674      -0.164
 C          11.402     -11.389       0.332
 C          12.233      -2.602       0.738
 C          10.133       3.725      -0.167
 C           9.932     -11.394       0.333
 C          11.477      -3.835       0.776
 C           9.444       2.460      -0.176
 C           9.235     -12.700       0.434
 C          20.232      -1.458       0.427
 C          17.960     -10.186       0.491
 C          18.792      -1.420       0.699
 C          16.520     -10.169       0.613
 C          18.054      -2.681       0.875
 C          15.970       3.588       0.070
 C          15.769     -11.401       0.570
 C          16.573      -2.651       0.901
 C          14.514       3.602       0.047
 C          14.318     -11.382       0.546
 C          13.750       2.377       0.130
 C          13.594     -12.645       0.642
 C          15.827      -3.877       0.997
 C          14.419      -3.863       0.976
 C          12.312       2.397      -0.034
 C          12.135     -12.640       0.489
 C          13.677      -5.094       0.935
 C          11.590       1.192       0.145
 C          11.427     -13.956       0.421
 C          12.201      -5.081       0.841
 C          10.124       1.190      -0.049
 C           9.967     -13.898       0.457
 C          20.971      -2.701       0.534
 C          18.682     -11.477       0.434
 C          20.281      -3.941       0.815
 C          18.130       2.317       0.064
 C          17.910     -12.709       0.574
 C          18.792      -3.925       0.954
 C          16.691       2.343       0.184
 C          16.451     -12.675       0.692
 C          18.024      -5.150       0.967
 C          15.926       1.132       0.516
 C          15.736     -13.907       0.813
 C          16.544      -5.134       0.999
 C          14.461       1.152       0.494
 C          14.281     -13.886       0.809
 C          15.819      -6.383       0.948
 C          13.734      -0.097       0.661
 C          13.550     -15.159       0.722
 C          14.365      -6.365       0.923
 C          12.284      -0.045       0.520
 C          12.130     -15.181       0.555
 C          20.938      -5.228       0.635
 C          18.812       1.095       0.260
 C          18.591     -14.052       0.483
 C          20.178      -6.452       0.613
 C          18.077      -0.114       0.639
 C          17.854     -15.253       0.596
 C          18.732      -6.443       0.884
 C          16.620      -0.132       0.723
 C          16.432     -15.204       0.743
 C          17.974      -7.721       0.882
 C          15.672     -16.463       0.720
 C          16.528      -7.667       0.966
 C          14.274     -16.438       0.706
 C          20.871      -7.719       0.417
 C          20.152      -8.976       0.491
 C          18.675      -8.965       0.610
 C          20.843     -10.257       0.443
 C          20.159     -11.517       0.476
 C          11.467      -6.356       0.724
 C          21.001       2.315      -0.019
 C          20.809     -12.837       0.568
 C          20.287       1.054       0.120
 C          20.052     -14.024       0.548
 C          20.965      -0.234       0.121
 C          10.037      -6.327       0.399
 C           9.985      -3.814       0.580
 C          10.097      -1.332       0.231
 C           9.332      -2.557       0.292
 C           9.301      -5.087       0.375
 C           9.316      -7.586       0.182
 C           9.413      -0.088      -0.090
