   142
 frame    448
 H          22.172       4.851      -0.067
 H          20.938       7.032      -0.099
 H          18.753       8.311      -0.074
 H          14.063       9.635      -0.055
 H          16.571       9.603      -0.037
 H           9.637       7.173      -0.196
 H           8.348       5.026      -0.217
 H          11.850       8.399      -0.126
 H           8.142     -10.125       0.251
 H           8.313       2.496      -0.186
 H           8.113     -12.652       0.384
 H           9.346     -14.828       0.525
 H          11.529     -16.106       0.629
 H          16.217     -17.428       0.736
 H          13.711     -17.396       0.717
 H          20.647     -14.970       0.637
 H          22.082      -2.727       0.249
 H          22.049      -5.248       0.355
 H          22.011      -7.770       0.426
 H          21.972     -10.296       0.489
 H          22.143       2.322       0.013
 H          21.936     -12.823       0.564
 H          18.431     -16.193       0.686
 H          22.114      -0.204       0.122
 H           8.238      -2.554      -0.062
 H           8.203      -5.077       0.031
 H           8.170      -7.600       0.134
 H           8.273      -0.032      -0.137
 C          18.913       3.588      -0.495
 C          20.379       3.579      -0.443
 C          21.064       4.866      -0.265
 C          16.735       4.895      -0.614
 C          18.187       4.844      -0.444
 C          18.915       6.108      -0.239
 C          20.371       6.071      -0.185
 C          12.339       4.913      -0.511
 C          13.799       4.940      -0.664
 C          14.547       6.159      -0.367
 C          16.022       6.145      -0.354
 C          16.762       7.401      -0.089
 C          18.214       7.339      -0.085
 C          11.645       6.198      -0.303
 C          12.365       7.410      -0.126
 C          13.819       7.437      -0.120
 C          14.604       8.677      -0.014
 C          16.007       8.657      -0.010
 C           9.462       5.015      -0.403
 C          10.184       6.195      -0.291
 C          13.626      -7.660      -0.097
 C          12.161      -7.646      -0.265
 C          11.407      -8.935      -0.311
 C           9.926      -8.899      -0.150
 C          11.570      -1.339      -0.130
 C           9.222     -10.174      -0.095
 C          15.808      -8.936      -0.107
 C          14.352      -8.915      -0.128
 C          15.902      -1.379      -0.189
 C          13.643     -10.197      -0.187
 C          14.452      -1.370      -0.213
 C          12.162     -10.185      -0.218
 C          13.726      -2.626      -0.170
 C          11.583       3.681      -0.585
 C          11.388     -11.419      -0.097
 C          12.281      -2.599      -0.061
 C          10.127       3.705      -0.561
 C           9.923     -11.416      -0.076
 C          11.559      -3.847       0.191
 C           9.393       2.486      -0.524
 C           9.216     -12.683       0.194
 C          20.269      -1.432       0.217
 C          17.970     -10.256      -0.129
 C          18.783      -1.437       0.008
 C          16.496     -10.229      -0.141
 C          18.033      -2.668       0.073
 C          15.975       3.635      -0.719
 C          15.780     -11.515      -0.279
 C          16.586      -2.658      -0.118
 C          14.520       3.659      -0.741
 C          14.324     -11.491      -0.290
 C          13.795       2.390      -0.560
 C          13.564     -12.734      -0.115
 C          15.894      -3.919      -0.297
 C          14.398      -3.900      -0.337
 C          12.314       2.421      -0.632
 C          12.104     -12.659       0.045
 C          13.699      -5.147      -0.090
 C          11.537       1.179      -0.647
 C          11.379     -13.903       0.324
 C          12.255      -5.126       0.001
 C          10.066       1.198      -0.489
 C           9.921     -13.866       0.384
 C          20.952      -2.702       0.306
 C          18.705     -11.509       0.010
 C          20.202      -3.964       0.423
 C          18.147       2.341      -0.536
 C          17.953     -12.730       0.110
 C          18.712      -3.935       0.353
 C          16.671       2.350      -0.526
 C          16.500     -12.766      -0.082
 C          17.998      -5.196       0.147
 C          15.944       1.094      -0.400
 C          15.750     -13.974       0.257
 C          16.555      -5.187      -0.026
 C          14.482       1.111      -0.422
 C          14.281     -13.958       0.232
 C          15.836      -6.444      -0.011
 C          13.725      -0.125      -0.331
 C          13.525     -15.200       0.567
 C          14.382      -6.419      -0.046
 C          12.257      -0.117      -0.505
 C          12.074     -15.126       0.568
 C          20.921      -5.245       0.409
 C          18.892       1.084      -0.510
 C          18.646     -13.995       0.404
 C          20.200      -6.485       0.392
 C          18.145      -0.189      -0.378
 C          17.914     -15.204       0.621
 C          18.709      -6.457       0.174
 C          16.667      -0.160      -0.281
 C          16.457     -15.240       0.586
 C          18.044      -7.713      -0.151
 C          15.679     -16.472       0.706
 C          16.567      -7.697      -0.042
 C          14.278     -16.455       0.697
 C          20.889      -7.784       0.398
 C          20.231      -9.027       0.046
 C          18.762      -9.022      -0.189
 C          20.898     -10.317       0.113
 C          20.175     -11.537       0.081
 C          11.508      -6.372       0.023
 C          21.071       2.332      -0.356
 C          20.840     -12.826       0.339
 C          20.364       1.074      -0.307
 C          20.103     -13.993       0.496
 C          20.994      -0.158       0.118
 C          10.016      -6.360       0.185
 C          10.066      -3.836       0.204
 C          10.082      -1.313       0.012
 C           9.357      -2.557       0.077
 C           9.322      -5.105       0.155
 C           9.292      -7.643       0.174
 C           9.393      -0.016      -0.093
