   142
 frame    206
 H          22.172       4.851      -0.067
 H          20.938       7.032      -0.099
 H          18.753       8.311      -0.074
 H          14.063       9.635      -0.055
 H          16.571       9.603      -0.037
 H           9.637       7.173      -0.196
 H           8.348       5.026      -0.217
 H          11.850       8.399      -0.126
 H           8.142     -10.125       0.251
 H           8.313       2.496      -0.186
 H           8.113     -12.652       0.384
 H           9.346     -14.828       0.525
 H          11.529     -16.106       0.629
 H          16.217     -17.428       0.736
 H          13.711     -17.396       0.717
 H          20.647     -14.970       0.637
 H          22.082      -2.727       0.249
 H          22.049      -5.248       0.355
 H          22.011      -7.770       0.426
 H          21.972     -10.296       0.489
 H          22.143       2.322       0.013
 H          21.936     -12.823       0.564
 H          18.431     -16.193       0.686
 H          22.114      -0.204       0.122
 H           8.238      -2.554      -0.062
 H           8.203      -5.077       0.031
 H           8.170      -7.600       0.134
 H           8.273      -0.032      -0.137
 C          18.881       3.571      -0.105
 C          20.355       3.547      -0.097
 C          21.073       4.858      -0.158
 C          16.687       4.867       0.070
 C          18.143       4.829       0.100
 C          18.901       6.114      -0.008
 C          20.398       6.074      -0.177
 C          12.370       4.897       0.034
 C          13.822       4.906       0.031
 C          14.547       6.170       0.065
 C          15.994       6.156       0.068
 C          16.740       7.416       0.105
 C          18.182       7.355       0.049
 C          11.647       6.203      -0.074
 C          12.400       7.424      -0.015
 C          13.840       7.450       0.096
 C          14.608       8.699       0.122
 C          16.000       8.677       0.131
 C           9.453       5.001      -0.277
 C          10.164       6.200      -0.274
 C          13.643      -7.687      -0.261
 C          12.178      -7.678      -0.326
 C          11.433      -8.921      -0.255
 C           9.965      -8.872      -0.070
 C          11.525      -1.330      -0.486
 C           9.275     -10.108       0.214
 C          15.809      -8.964       0.031
 C          14.351      -8.946       0.002
 C          15.921      -1.398      -0.612
 C          13.609     -10.185       0.007
 C          14.449      -1.378      -0.649
 C          12.136     -10.179      -0.067
 C          13.695      -2.644      -0.609
 C          11.609       3.662      -0.210
 C          11.413     -11.370       0.297
 C          12.239      -2.600      -0.522
 C          10.132       3.671      -0.219
 C           9.945     -11.351       0.286
 C          11.502      -3.871      -0.405
 C           9.427       2.444      -0.226
 C           9.232     -12.665       0.295
 C          20.324      -1.444      -0.228
 C          17.995     -10.249       0.037
 C          18.852      -1.421      -0.339
 C          16.520     -10.222       0.067
 C          18.102      -2.669      -0.381
 C          15.977       3.603      -0.208
 C          15.772     -11.437       0.292
 C          16.645      -2.681      -0.566
 C          14.508       3.620      -0.225
 C          14.311     -11.418       0.271
 C          13.777       2.388      -0.415
 C          13.593     -12.657       0.618
 C          15.900      -3.928      -0.555
 C          14.403      -3.909      -0.590
 C          12.296       2.415      -0.482
 C          12.133     -12.616       0.604
 C          13.660      -5.153      -0.531
 C          11.561       1.175      -0.594
 C          11.394     -13.914       0.552
 C          12.203      -5.161      -0.438
 C          10.097       1.177      -0.407
 C           9.913     -13.885       0.374
 C          20.990      -2.700       0.005
 C          18.671     -11.468       0.406
 C          20.295      -3.982      -0.145
 C          18.177       2.345      -0.407
 C          17.908     -12.690       0.680
 C          18.802      -3.959      -0.241
 C          16.688       2.353      -0.365
 C          16.450     -12.697       0.639
 C          18.065      -5.233      -0.302
 C          15.942       1.132      -0.301
 C          15.732     -13.964       0.716
 C          16.612      -5.190      -0.468
 C          14.496       1.142      -0.341
 C          14.277     -13.948       0.705
 C          15.851      -6.454      -0.438
 C          13.747      -0.108      -0.504
 C          13.536     -15.212       0.788
 C          14.382      -6.435      -0.481
 C          12.281      -0.094      -0.593
 C          12.104     -15.152       0.685
 C          20.965      -5.261       0.109
 C          18.880       1.090      -0.486
 C          18.621     -14.005       0.641
 C          20.263      -6.515      -0.030
 C          18.123      -0.166      -0.480
 C          17.878     -15.227       0.737
 C          18.784      -6.507      -0.151
 C          16.657      -0.144      -0.445
 C          16.441     -15.245       0.820
 C          18.024      -7.744      -0.210
 C          15.669     -16.483       0.883
 C          16.548      -7.720      -0.191
 C          14.280     -16.473       0.869
 C          20.933      -7.778       0.139
 C          20.199      -8.998       0.121
 C          18.739      -9.014      -0.109
 C          20.849     -10.254       0.411
 C          20.142     -11.482       0.448
 C          11.457      -6.411      -0.308
 C          21.027       2.303      -0.055
 C          20.825     -12.809       0.456
 C          20.337       1.049      -0.244
 C          20.114     -14.006       0.503
 C          21.031      -0.187      -0.159
 C           9.971      -6.389      -0.256
 C          10.003      -3.858      -0.376
 C          10.046      -1.318      -0.437
 C           9.340      -2.557      -0.244
 C           9.297      -5.110      -0.159
 C           9.260      -7.635      -0.107
 C           9.372      -0.048      -0.373
