   142
 frame    890
 H          22.172       4.851      -0.067
 H          20.938       7.032      -0.099
 H          18.753       8.311      -0.074
 H          14.063       9.635      -0.055
 H          16.571       9.603      -0.037
 H           9.637       7.173      -0.196
 H           8.348       5.026      -0.217
 H          11.850       8.399      -0.126
 H           8.142     -10.125       0.251
 H           8.313       2.496      -0.186
 H           8.113     -12.652       0.384
 H           9.346     -14.828       0.525
 H          11.529     -16.106       0.629
 H          16.217     -17.428       0.736
 H          13.711     -17.396       0.717
 H          20.647     -14.970       0.637
 H          22.082      -2.727       0.249
 H          22.049      -5.248       0.355
 H          22.011      -7.770       0.426
 H          21.972     -10.296       0.489
 H          22.143       2.322       0.013
 H          21.936     -12.823       0.564
 H          18.431     -16.193       0.686
 H          22.114      -0.204       0.122
 H           8.238      -2.554      -0.062
 H           8.203      -5.077       0.031
 H           8.170      -7.600       0.134
 H           8.273      -0.032      -0.137
 C          18.858       3.604       0.257
 C          20.349       3.572       0.193
 C          21.078       4.848       0.059
 C          16.738       4.902       0.059
 C          18.190       4.859      -0.053
 C          18.951       6.127      -0.204
 C          20.417       6.056      -0.069
 C          12.326       4.937      -0.123
 C          13.770       4.944       0.009
 C          14.547       6.202      -0.019
 C          16.009       6.177       0.004
 C          16.746       7.413      -0.183
 C          18.217       7.352      -0.225
 C          11.596       6.224      -0.292
 C          12.364       7.428      -0.276
 C          13.847       7.455      -0.209
 C          14.608       8.683      -0.265
 C          16.014       8.666      -0.252
 C           9.440       4.988      -0.087
 C          10.132       6.190      -0.165
 C          13.580      -7.633       0.786
 C          12.098      -7.619       0.722
 C          11.431      -8.883       0.831
 C           9.937      -8.861       0.628
 C          11.451      -1.321       0.531
 C           9.237     -10.123       0.510
 C          15.811      -8.897       0.638
 C          14.344      -8.880       0.606
 C          15.911      -1.327       0.931
 C          13.633     -10.177       0.716
 C          14.407      -1.313       0.898
 C          12.172     -10.136       0.816
 C          13.641      -2.584       1.045
 C          11.619       3.707       0.162
 C          11.415     -11.389       0.698
 C          12.146      -2.572       0.846
 C          10.123       3.699       0.065
 C           9.927     -11.363       0.600
 C          11.411      -3.827       0.775
 C           9.401       2.475       0.044
 C           9.205     -12.641       0.526
 C          20.332      -1.461       0.455
 C          17.920     -10.215       0.921
 C          18.884      -1.410       0.681
 C          16.467     -10.219       0.764
 C          18.139      -2.645       0.967
 C          15.973       3.675       0.129
 C          15.768     -11.478       0.634
 C          16.631      -2.610       1.108
 C          14.508       3.685       0.089
 C          14.307     -11.458       0.614
 C          13.797       2.431       0.266
 C          13.535     -12.697       0.597
 C          15.864      -3.865       1.128
 C          14.374      -3.854       1.087
 C          12.339       2.434       0.362
 C          12.081     -12.655       0.463
 C          13.604      -5.111       1.122
 C          11.565       1.197       0.462
 C          11.334     -13.935       0.381
 C          12.111      -5.104       0.923
 C          10.073       1.208       0.250
 C           9.870     -13.859       0.492
 C          21.004      -2.728       0.370
 C          18.658     -11.481       0.800
 C          20.297      -3.958       0.544
 C          18.098       2.361       0.464
 C          17.963     -12.721       0.536
 C          18.843      -3.918       0.930
 C          16.642       2.397       0.329
 C          16.510     -12.732       0.660
 C          18.106      -5.169       1.059
 C          15.933       1.102       0.283
 C          15.740     -13.987       0.647
 C          16.600      -5.142       1.201
 C          14.474       1.121       0.256
 C          14.270     -13.972       0.633
 C          15.845      -6.425       1.115
 C          13.676      -0.086       0.518
 C          13.548     -15.213       0.500
 C          14.334      -6.408       1.082
 C          12.205      -0.077       0.444
 C          12.074     -15.157       0.430
 C          20.969      -5.221       0.476
 C          18.836       1.111       0.592
 C          18.688     -14.023       0.445
 C          20.276      -6.459       0.647
 C          18.167      -0.139       0.569
 C          17.920     -15.232       0.491
 C          18.812      -6.450       0.854
 C          16.688      -0.132       0.572
 C          16.442     -15.248       0.539
 C          18.061      -7.703       0.817
 C          15.681     -16.483       0.508
 C          16.582      -7.666       0.826
 C          14.283     -16.466       0.499
 C          20.910      -7.761       0.620
 C          20.198      -8.989       0.822
 C          18.700      -8.986       0.967
 C          20.869     -10.263       0.696
 C          20.149     -11.491       0.741
 C          11.382      -6.355       0.696
 C          21.046       2.328       0.228
 C          20.845     -12.792       0.676
 C          20.334       1.076       0.424
 C          20.147     -13.986       0.605
 C          21.009      -0.183       0.327
 C           9.937      -6.326       0.415
 C           9.979      -3.822       0.317
 C          10.001      -1.334       0.239
 C           9.312      -2.587       0.102
 C           9.278      -5.066       0.200
 C           9.263      -7.613       0.374
 C           9.365      -0.036       0.118
