   142
 frame    515
 H          22.172       4.851      -0.067
 H          20.938       7.032      -0.099
 H          18.753       8.311      -0.074
 H          14.063       9.635      -0.055
 H          16.571       9.603      -0.037
 H           9.637       7.173      -0.196
 H           8.348       5.026      -0.217
 H          11.850       8.399      -0.126
 H           8.142     -10.125       0.251
 H           8.313       2.496      -0.186
 H           8.113     -12.652       0.384
 H           9.346     -14.828       0.525
 H          11.529     -16.106       0.629
 H          16.217     -17.428       0.736
 H          13.711     -17.396       0.717
 H          20.647     -14.970       0.637
 H          22.082      -2.727       0.249
 H          22.049      -5.248       0.355
 H          22.011      -7.770       0.426
 H          21.972     -10.296       0.489
 H          22.143       2.322       0.013
 H          21.936     -12.823       0.564
 H          18.431     -16.193       0.686
 H          22.114      -0.204       0.122
 H           8.238      -2.554      -0.062
 H           8.203      -5.077       0.031
 H           8.170      -7.600       0.134
 H           8.273      -0.032      -0.137
 C          18.832       3.615       0.005
 C          20.324       3.607       0.048
 C          21.072       4.863      -0.026
 C          16.712       4.836      -0.228
 C          18.166       4.873      -0.199
 C          18.930       6.123      -0.271
 C          20.395       6.063      -0.145
 C          12.348       4.950      -0.267
 C          13.811       4.873      -0.262
 C          14.532       6.139      -0.211
 C          16.016       6.123      -0.195
 C          16.760       7.407      -0.234
 C          18.202       7.361      -0.318
 C          11.623       6.218      -0.338
 C          12.384       7.433      -0.359
 C          13.820       7.448      -0.249
 C          14.609       8.683      -0.210
 C          16.007       8.660      -0.193
 C           9.445       5.004      -0.172
 C          10.156       6.191      -0.264
 C          13.674      -7.631      -0.179
 C          12.218      -7.611      -0.040
 C          11.457      -8.875       0.054
 C           9.964      -8.866       0.176
 C          11.567      -1.361      -0.128
 C           9.269     -10.153       0.312
 C          15.812      -8.917      -0.254
 C          14.360      -8.898      -0.297
 C          15.901      -1.419      -0.135
 C          13.586     -10.134      -0.051
 C          14.464      -1.399      -0.167
 C          12.149     -10.142       0.189
 C          13.728      -2.641      -0.024
 C          11.654       3.705      -0.087
 C          11.447     -11.410       0.426
 C          12.265      -2.611       0.000
 C          10.172       3.717      -0.089
 C           9.971     -11.393       0.416
 C          11.526      -3.864      -0.054
 C           9.437       2.496      -0.113
 C           9.213     -12.658       0.428
 C          20.275      -1.459       0.069
 C          17.967     -10.217       0.281
 C          18.792      -1.442       0.018
 C          16.546     -10.165      -0.007
 C          18.060      -2.678       0.097
 C          15.983       3.542      -0.380
 C          15.783     -11.378       0.106
 C          16.599      -2.675       0.015
 C          14.511       3.560      -0.406
 C          14.309     -11.357       0.083
 C          13.745       2.344      -0.460
 C          13.573     -12.648       0.293
 C          15.866      -3.920       0.083
 C          14.422      -3.899       0.071
 C          12.327       2.407      -0.237
 C          12.112     -12.679       0.298
 C          13.694      -5.142       0.038
 C          11.593       1.155      -0.274
 C          11.346     -13.931       0.303
 C          12.234      -5.123       0.063
 C          10.102       1.191      -0.176
 C           9.886     -13.863       0.406
 C          20.953      -2.730       0.088
 C          18.632     -11.507       0.519
 C          20.223      -3.980       0.048
 C          18.135       2.339      -0.154
 C          17.935     -12.758       0.371
 C          18.762      -3.958       0.093
 C          16.719       2.309      -0.415
 C          16.480     -12.682       0.329
 C          18.021      -5.200       0.176
 C          15.953       1.057      -0.575
 C          15.750     -13.944       0.417
 C          16.561      -5.174       0.075
 C          14.488       1.074      -0.595
 C          14.262     -13.926       0.413
 C          15.831      -6.425       0.010
 C          13.768      -0.171      -0.400
 C          13.522     -15.212       0.428
 C          14.398      -6.408      -0.006
 C          12.308      -0.134      -0.270
 C          12.082     -15.164       0.333
 C          20.924      -5.231       0.181
 C          18.836       1.065      -0.153
 C          18.673     -14.017       0.385
 C          20.208      -6.468       0.261
 C          18.083      -0.198      -0.165
 C          17.918     -15.234       0.387
 C          18.731      -6.458       0.170
 C          16.632      -0.210      -0.353
 C          16.463     -15.251       0.456
 C          17.981      -7.684       0.059
 C          15.676     -16.489       0.532
 C          16.529      -7.661      -0.130
 C          14.283     -16.469       0.528
 C          20.894      -7.748       0.399
 C          20.188      -8.998       0.365
 C          18.698      -8.961       0.183
 C          20.844     -10.304       0.510
 C          20.114     -11.520       0.559
 C          11.495      -6.363       0.034
 C          21.013       2.355       0.039
 C          20.834     -12.800       0.568
 C          20.321       1.071      -0.006
 C          20.130     -13.986       0.512
 C          20.995      -0.193       0.118
 C          10.007      -6.342       0.037
 C          10.070      -3.848      -0.172
 C          10.082      -1.342      -0.134
 C           9.367      -2.590      -0.167
 C           9.329      -5.084      -0.082
 C           9.283      -7.606       0.161
 C           9.391      -0.051      -0.102
