   142
 frame    294
 H          22.172       4.851      -0.067
 H          20.938       7.032      -0.099
 H          18.753       8.311      -0.074
 H          14.063       9.635      -0.055
 H          16.571       9.603      -0.037
 H           9.637       7.173      -0.196
 H           8.348       5.026      -0.217
 H          11.850       8.399      -0.126
 H           8.142     -10.125       0.251
 H           8.313       2.496      -0.186
 H           8.113     -12.652       0.384
 H           9.346     -14.828       0.525
 H          11.529     -16.106       0.629
 H          16.217     -17.428       0.736
 H          13.711     -17.396       0.717
 H          20.647     -14.970       0.637
 H          22.082      -2.727       0.249
 H          22.049      -5.248       0.355
 H          22.011      -7.770       0.426
 H          21.972     -10.296       0.489
 H          22.143       2.322       0.013
 H          21.936     -12.823       0.564
 H          18.431     -16.193       0.686
 H          22.114      -0.204       0.122
 H           8.238      -2.554      -0.062
 H           8.203      -5.077       0.031
 H           8.170      -7.600       0.134
 H           8.273      -0.032      -0.137
 C          18.899       3.593      -0.268
 C          20.386       3.562      -0.148
 C          21.073       4.841      -0.160
 C          16.749       4.881      -0.506
 C          18.208       4.869      -0.237
 C          18.944       6.134      -0.127
 C          20.399       6.056      -0.139
 C          12.312       4.946      -0.304
 C          13.779       4.921      -0.544
 C          14.545       6.183      -0.456
 C          16.019       6.162      -0.447
 C          16.775       7.419      -0.256
 C          18.201       7.350      -0.131
 C          11.603       6.223      -0.198
 C          12.380       7.418      -0.177
 C          13.811       7.446      -0.263
 C          14.603       8.676      -0.183
 C          16.009       8.659      -0.162
 C           9.445       4.985      -0.297
 C          10.151       6.181      -0.244
 C          13.645      -7.618      -0.275
 C          12.161      -7.617      -0.216
 C          11.421      -8.880      -0.159
 C           9.962      -8.871       0.030
 C          11.500      -1.378      -0.356
 C           9.252     -10.137       0.165
 C          15.816      -8.919      -0.071
 C          14.342      -8.904      -0.109
 C          15.916      -1.455      -0.615
 C          13.602     -10.173      -0.159
 C          14.456      -1.439      -0.648
 C          12.132     -10.152      -0.099
 C          13.694      -2.649      -0.700
 C          11.590       3.681      -0.361
 C          11.386     -11.414       0.127
 C          12.229      -2.640      -0.448
 C          10.107       3.683      -0.283
 C           9.904     -11.374       0.221
 C          11.500      -3.867      -0.304
 C           9.417       2.460      -0.257
 C           9.206     -12.644       0.310
 C          20.311      -1.466      -0.004
 C          17.998     -10.224       0.007
 C          18.867      -1.470      -0.188
 C          16.528     -10.213      -0.093
 C          18.108      -2.714      -0.309
 C          16.007       3.625      -0.667
 C          15.803     -11.487      -0.196
 C          16.658      -2.680      -0.639
 C          14.498       3.642      -0.681
 C          14.303     -11.472      -0.221
 C          13.771       2.377      -0.541
 C          13.553     -12.716       0.011
 C          15.891      -3.931      -0.712
 C          14.433      -3.914      -0.739
 C          12.309       2.395      -0.499
 C          12.088     -12.689       0.247
 C          13.666      -5.157      -0.617
 C          11.558       1.138      -0.491
 C          11.342     -13.945       0.423
 C          12.203      -5.124      -0.359
 C          10.101       1.180      -0.290
 C           9.876     -13.850       0.428
 C          20.972      -2.733       0.141
 C          18.703     -11.509       0.241
 C          20.273      -3.974       0.048
 C          18.156       2.325      -0.422
 C          17.962     -12.768       0.327
 C          18.804      -3.955      -0.130
 C          16.696       2.343      -0.497
 C          16.510     -12.756       0.031
 C          18.064      -5.189      -0.214
 C          15.948       1.071      -0.404
 C          15.754     -14.006       0.153
 C          16.614      -5.194      -0.556
 C          14.477       1.087      -0.424
 C          14.282     -13.989       0.142
 C          15.849      -6.400      -0.453
 C          13.743      -0.169      -0.513
 C          13.517     -15.218       0.404
 C          14.388      -6.383      -0.478
 C          12.262      -0.138      -0.461
 C          12.087     -15.156       0.501
 C          20.939      -5.227       0.249
 C          18.876       1.051      -0.352
 C          18.680     -14.042       0.515
 C          20.238      -6.480       0.182
 C          18.139      -0.213      -0.335
 C          17.904     -15.232       0.571
 C          18.795      -6.447      -0.012
 C          16.655      -0.206      -0.458
 C          16.472     -15.262       0.431
 C          18.035      -7.692      -0.089
 C          15.682     -16.472       0.549
 C          16.557      -7.661      -0.202
 C          14.275     -16.453       0.552
 C          20.899      -7.761       0.356
 C          20.188      -8.995       0.237
 C          18.743      -8.969      -0.007
 C          20.868     -10.280       0.376
 C          20.187     -11.506       0.385
 C          11.439      -6.357      -0.195
 C          21.039       2.321      -0.074
 C          20.846     -12.789       0.460
 C          20.322       1.050      -0.124
 C          20.146     -13.983       0.545
 C          20.997      -0.203       0.068
 C           9.980      -6.350      -0.045
 C          10.013      -3.848      -0.185
 C          10.046      -1.338      -0.211
 C           9.343      -2.591      -0.109
 C           9.316      -5.086      -0.020
 C           9.289      -7.612       0.103
 C           9.393      -0.054      -0.141
