   142
 frame    874
 H          22.172       4.851      -0.067
 H          20.938       7.032      -0.099
 H          18.753       8.311      -0.074
 H          14.063       9.635      -0.055
 H          16.571       9.603      -0.037
 H           9.637       7.173      -0.196
 H           8.348       5.026      -0.217
 H          11.850       8.399      -0.126
 H           8.142     -10.125       0.251
 H           8.313       2.496      -0.186
 H           8.113     -12.652       0.384
 H           9.346     -14.828       0.525
 H          11.529     -16.106       0.629
 H          16.217     -17.428       0.736
 H          13.711     -17.396       0.717
 H          20.647     -14.970       0.637
 H          22.082      -2.727       0.249
 H          22.049      -5.248       0.355
 H          22.011      -7.770       0.426
 H          21.972     -10.296       0.489
 H          22.143       2.322       0.013
 H          21.936     -12.823       0.564
 H          18.431     -16.193       0.686
 H          22.114      -0.204       0.122
 H           8.238      -2.554      -0.062
 H           8.203      -5.077       0.031
 H           8.170      -7.600       0.134
 H           8.273      -0.032      -0.137
 C          18.911       3.615       0.244
 C          20.380       3.548       0.165
 C          21.060       4.852       0.015
 C          16.715       4.872       0.041
 C          18.182       4.851       0.043
 C          18.894       6.103      -0.163
 C          20.378       6.060      -0.143
 C          12.331       4.921      -0.038
 C          13.795       4.903      -0.000
 C          14.528       6.159      -0.190
 C          16.015       6.152      -0.170
 C          16.780       7.402      -0.145
 C          18.200       7.341      -0.160
 C          11.655       6.192      -0.226
 C          12.386       7.419      -0.215
 C          13.800       7.438      -0.171
 C          14.606       8.666      -0.157
 C          16.005       8.650      -0.141
 C           9.453       4.999      -0.103
 C          10.173       6.192      -0.246
 C          13.638      -7.634       0.880
 C          12.171      -7.615       0.799
 C          11.372      -8.860       0.709
 C           9.909      -8.847       0.572
 C          11.494      -1.304       0.560
 C           9.213     -10.117       0.480
 C          15.790      -8.939       0.786
 C          14.334      -8.923       0.763
 C          15.901      -1.371       0.938
 C          13.551     -10.147       0.731
 C          14.416      -1.352       0.898
 C          12.077     -10.143       0.789
 C          13.644      -2.587       0.895
 C          11.567       3.695       0.134
 C          11.372     -11.394       0.676
 C          12.169      -2.570       0.786
 C          10.099       3.672       0.020
 C           9.897     -11.336       0.564
 C          11.424      -3.843       0.614
 C           9.395       2.462       0.027
 C           9.223     -12.657       0.487
 C          20.311      -1.423       0.453
 C          18.028     -10.216       0.895
 C          18.831      -1.399       0.707
 C          16.551     -10.186       0.800
 C          18.113      -2.647       0.918
 C          15.977       3.617       0.251
 C          15.778     -11.418       0.771
 C          16.641      -2.631       0.973
 C          14.495       3.635       0.220
 C          14.292     -11.403       0.734
 C          13.708       2.411       0.284
 C          13.568     -12.663       0.594
 C          15.881      -3.883       0.950
 C          14.366      -3.862       0.906
 C          12.238       2.439       0.325
 C          12.100     -12.648       0.569
 C          13.608      -5.113       0.980
 C          11.504       1.174       0.352
 C          11.389     -13.910       0.418
 C          12.128      -5.103       0.877
 C          10.039       1.182       0.203
 C           9.906     -13.869       0.402
 C          20.956      -2.694       0.342
 C          18.701     -11.494       0.784
 C          20.281      -3.959       0.494
 C          18.204       2.370       0.436
 C          17.949     -12.730       0.651
 C          18.838      -3.934       0.775
 C          16.725       2.369       0.351
 C          16.481     -12.702       0.623
 C          18.086      -5.184       1.004
 C          15.935       1.154       0.451
 C          15.749     -13.970       0.498
 C          16.610      -5.152       1.048
 C          14.465       1.164       0.412
 C          14.270     -13.948       0.471
 C          15.833      -6.386       1.114
 C          13.736      -0.101       0.588
 C          13.502     -15.196       0.536
 C          14.352      -6.371       1.084
 C          12.260      -0.082       0.534
 C          12.083     -15.151       0.485
 C          20.927      -5.248       0.446
 C          18.898       1.082       0.487
 C          18.630     -14.001       0.496
 C          20.233      -6.493       0.654
 C          18.096      -0.156       0.644
 C          17.901     -15.215       0.547
 C          18.763      -6.467       0.894
 C          16.617      -0.125       0.660
 C          16.486     -15.233       0.570
 C          17.989      -7.682       0.914
 C          15.675     -16.461       0.628
 C          16.522      -7.675       0.928
 C          14.276     -16.446       0.609
 C          20.938      -7.742       0.620
 C          20.226      -8.982       0.764
 C          18.757      -8.952       0.845
 C          20.890     -10.265       0.677
 C          20.175     -11.467       0.709
 C          11.434      -6.374       0.749
 C          21.058       2.316       0.189
 C          20.825     -12.800       0.632
 C          20.365       1.056       0.371
 C          20.115     -13.992       0.503
 C          21.047      -0.204       0.331
 C           9.968      -6.369       0.415
 C           9.991      -3.834       0.257
 C          10.031      -1.298       0.255
 C           9.361      -2.544       0.083
 C           9.319      -5.112       0.175
 C           9.231      -7.594       0.375
 C           9.335      -0.057       0.101
