   142
 frame     30
 H          22.172       4.851      -0.067
 H          20.938       7.032      -0.099
 H          18.753       8.311      -0.074
 H          14.063       9.635      -0.055
 H          16.571       9.603      -0.037
 H           9.637       7.173      -0.196
 H           8.348       5.026      -0.217
 H          11.850       8.399      -0.126
 H           8.142     -10.125       0.251
 H           8.313       2.496      -0.186
 H           8.113     -12.652       0.384
 H           9.346     -14.828       0.525
 H          11.529     -16.106       0.629
 H          16.217     -17.428       0.736
 H          13.711     -17.396       0.717
 H          20.647     -14.970       0.637
 H          22.082      -2.727       0.249
 H          22.049      -5.248       0.355
 H          22.011      -7.770       0.426
 H          21.972     -10.296       0.489
 H          22.143       2.322       0.013
 H          21.936     -12.823       0.564
 H          18.431     -16.193       0.686
 H          22.114      -0.204       0.122
 H           8.238      -2.554      -0.062
 H           8.203      -5.077       0.031
 H           8.170      -7.600       0.134
 H           8.273      -0.032      -0.137
 C          18.880       3.596      -0.031
 C          20.353       3.576      -0.029
 C          21.065       4.870      -0.061
 C          16.713       4.873      -0.059
 C          18.170       4.860      -0.057
 C          18.909       6.129      -0.071
 C          20.383       6.074      -0.079
 C          12.347       4.933      -0.120
 C          13.803       4.908      -0.091
 C          14.544       6.161      -0.084
 C          16.002       6.143      -0.071
 C          16.751       7.398      -0.066
 C          18.192       7.358      -0.071
 C          11.641       6.221      -0.140
 C          12.388       7.432      -0.118
 C          13.829       7.435      -0.090
 C          14.607       8.672      -0.066
 C          16.002       8.654      -0.056
 C           9.455       5.015      -0.188
 C          10.167       6.202      -0.177
 C          13.636      -7.635       0.381
 C          12.186      -7.625       0.231
 C          11.444      -8.871       0.272
 C           9.964      -8.862       0.248
 C          11.519      -1.330       0.055
 C           9.250     -10.135       0.287
 C          15.804      -8.915       0.360
 C          14.349      -8.895       0.331
 C          15.914      -1.394       0.276
 C          13.607     -10.148       0.373
 C          14.430      -1.383       0.235
 C          12.143     -10.140       0.363
 C          13.698      -2.600      -0.018
 C          11.606       3.686      -0.123
 C          11.404     -11.397       0.404
 C          12.238      -2.608       0.158
 C          10.133       3.704      -0.159
 C           9.930     -11.376       0.363
 C          11.468      -3.852       0.236
 C           9.422       2.477      -0.157
 C           9.220     -12.669       0.410
 C          20.293      -1.454       0.145
 C          17.973     -10.212       0.464
 C          18.823      -1.429       0.182
 C          16.510     -10.185       0.423
 C          18.073      -2.684       0.272
 C          15.972       3.611      -0.052
 C          15.771     -11.433       0.481
 C          16.599      -2.658       0.075
 C          14.512       3.629      -0.073
 C          14.312     -11.415       0.460
 C          13.777       2.378      -0.084
 C          13.569     -12.672       0.503
 C          15.941      -3.923      -0.429
 C          14.362      -3.912      -0.475
 C          12.313       2.407      -0.091
 C          12.113     -12.658       0.474
 C          13.675      -5.150       0.086
 C          11.582       1.152      -0.098
 C          11.374     -13.926       0.519
 C          12.219      -5.107       0.255
 C          10.102       1.184      -0.117
 C           9.901     -13.872       0.487
 C          20.970      -2.718       0.205
 C          18.679     -11.487       0.514
 C          20.261      -3.967       0.277
 C          18.140       2.335      -0.004
 C          17.936     -12.731       0.549
 C          18.802      -3.944       0.377
 C          16.675       2.343      -0.039
 C          16.481     -12.708       0.540
 C          18.019      -5.172       0.376
 C          15.936       1.096      -0.026
 C          15.737     -13.958       0.581
 C          16.562      -5.182       0.135
 C          14.486       1.116      -0.046
 C          14.280     -13.940       0.566
 C          15.839      -6.378       0.476
 C          13.732      -0.103       0.089
 C          13.531     -15.193       0.613
 C          14.370      -6.363       0.449
 C          12.286      -0.110      -0.051
 C          12.091     -15.153       0.591
 C          20.936      -5.232       0.311
 C          18.840       1.064       0.025
 C          18.643     -14.017       0.599
 C          20.225      -6.479       0.354
 C          18.103      -0.186       0.048
 C          17.895     -15.226       0.645
 C          18.751      -6.457       0.408
 C          16.651      -0.147       0.124
 C          16.453     -15.230       0.639
 C          18.003      -7.698       0.354
 C          15.673     -16.465       0.689
 C          16.543      -7.670       0.443
 C          14.279     -16.447       0.678
 C          20.903      -7.752       0.400
 C          20.186      -8.989       0.445
 C          18.708      -8.964       0.413
 C          20.865     -10.280       0.488
 C          20.152     -11.503       0.518
 C          11.459      -6.371       0.247
 C          21.034       2.332       0.012
 C          20.829     -12.813       0.562
 C          20.318       1.059       0.054
 C          20.117     -13.999       0.602
 C          21.002      -0.199       0.100
 C           9.993      -6.353       0.126
 C          10.026      -3.840       0.044
 C          10.059      -1.325      -0.064
 C           9.356      -2.574      -0.056
 C           9.320      -5.088       0.039
 C           9.281      -7.607       0.155
 C           9.384      -0.055      -0.121
