   142
 frame     84
 H          22.172       4.851      -0.067
 H          20.938       7.032      -0.099
 H          18.753       8.311      -0.074
 H          14.063       9.635      -0.055
 H          16.571       9.603      -0.037
 H           9.637       7.173      -0.196
 H           8.348       5.026      -0.217
 H          11.850       8.399      -0.126
 H           8.142     -10.125       0.251
 H           8.313       2.496      -0.186
 H           8.113     -12.652       0.384
 H           9.346     -14.828       0.525
 H          11.529     -16.106       0.629
 H          16.217     -17.428       0.736
 H          13.711     -17.396       0.717
 H          20.647     -14.970       0.637
 H          22.082      -2.727       0.249
 H          22.049      -5.248       0.355
 H          22.011      -7.770       0.426
 H          21.972     -10.296       0.489
 H          22.143       2.322       0.013
 H          21.936     -12.823       0.564
 H          18.431     -16.193       0.686
 H          22.114      -0.204       0.122
 H           8.238      -2.554      -0.062
 H           8.203      -5.077       0.031
 H           8.170      -7.600       0.134
 H           8.273      -0.032      -0.137
 C          18.864       3.570      -0.086
 C          20.329       3.555      -0.091
 C          21.045       4.849      -0.051
 C          16.711       4.849      -0.107
 C          18.163       4.838      -0.112
 C          18.899       6.110      -0.060
 C          20.373       6.064      -0.048
 C          12.352       4.912      -0.178
 C          13.801       4.888      -0.135
 C          14.546       6.139      -0.118
 C          16.004       6.120      -0.105
 C          16.744       7.383      -0.063
 C          18.187       7.345      -0.049
 C          11.652       6.204      -0.135
 C          12.397       7.420      -0.100
 C          13.838       7.421      -0.089
 C          14.608       8.666      -0.060
 C          16.003       8.646      -0.049
 C           9.476       4.994      -0.186
 C          10.181       6.191      -0.148
 C          13.641      -7.671       0.013
 C          12.162      -7.630       0.151
 C          11.439      -8.847       0.445
 C           9.967      -8.836       0.352
 C          11.526      -1.377      -0.158
 C           9.257     -10.111       0.241
 C          15.808      -8.913       0.402
 C          14.342      -8.898       0.373
 C          15.920      -1.396      -0.489
 C          13.589     -10.131       0.569
 C          14.461      -1.370      -0.535
 C          12.135     -10.110       0.498
 C          13.727      -2.625      -0.404
 C          11.618       3.663      -0.171
 C          11.412     -11.363       0.347
 C          12.220      -2.612      -0.417
 C          10.153       3.682      -0.227
 C           9.940     -11.354       0.289
 C          11.469      -3.871      -0.285
 C           9.426       2.466      -0.198
 C           9.231     -12.648       0.412
 C          20.306      -1.458       0.255
 C          17.968     -10.183       0.598
 C          18.830      -1.468      -0.012
 C          16.516     -10.168       0.615
 C          18.116      -2.688      -0.294
 C          15.964       3.605       0.016
 C          15.764     -11.405       0.552
 C          16.611      -2.664      -0.372
 C          14.508       3.627      -0.005
 C          14.305     -11.389       0.530
 C          13.763       2.390       0.104
 C          13.570     -12.642       0.451
 C          15.896      -3.926      -0.373
 C          14.417      -3.915      -0.414
 C          12.309       2.401       0.042
 C          12.115     -12.635       0.409
 C          13.689      -5.181      -0.323
 C          11.586       1.152       0.072
 C          11.380     -13.908       0.523
 C          12.182      -5.147      -0.328
 C          10.106       1.185      -0.012
 C           9.905     -13.858       0.516
 C          20.971      -2.715       0.344
 C          18.667     -11.451       0.462
 C          20.258      -3.961       0.258
 C          18.133       2.328       0.119
 C          17.932     -12.705       0.488
 C          18.838      -3.954      -0.132
 C          16.677       2.351       0.156
 C          16.476     -12.676       0.491
 C          18.075      -5.220      -0.189
 C          15.942       1.107       0.029
 C          15.738     -13.932       0.547
 C          16.581      -5.214      -0.261
 C          14.482       1.125       0.010
 C          14.280     -13.914       0.529
 C          15.849      -6.469      -0.313
 C          13.746      -0.118      -0.260
 C          13.537     -15.176       0.616
 C          14.391      -6.458      -0.337
 C          12.278      -0.112      -0.124
 C          12.092     -15.140       0.611
 C          20.929      -5.213       0.445
 C          18.826       1.063       0.199
 C          18.639     -13.998       0.606
 C          20.226      -6.459       0.448
 C          18.108      -0.185      -0.004
 C          17.896     -15.213       0.666
 C          18.757      -6.434       0.192
 C          16.661      -0.147      -0.215
 C          16.451     -15.214       0.643
 C          18.022      -7.704       0.260
 C          15.675     -16.457       0.697
 C          16.559      -7.707       0.078
 C          14.278     -16.438       0.686
 C          20.912      -7.746       0.494
 C          20.178      -8.967       0.550
 C          18.703      -8.937       0.573
 C          20.860     -10.257       0.446
 C          20.143     -11.482       0.447
 C          11.465      -6.348       0.033
 C          21.028       2.323      -0.036
 C          20.821     -12.793       0.564
 C          20.310       1.062       0.141
 C          20.115     -13.986       0.632
 C          21.013      -0.181       0.194
 C           9.982      -6.329       0.240
 C          10.022      -3.834       0.031
 C          10.040      -1.332       0.051
 C           9.336      -2.573       0.095
 C           9.307      -5.070       0.187
 C           9.260      -7.604       0.257
 C           9.365      -0.036      -0.014
