   142
 frame     36
 H          22.172       4.851      -0.067
 H          20.938       7.032      -0.099
 H          18.753       8.311      -0.074
 H          14.063       9.635      -0.055
 H          16.571       9.603      -0.037
 H           9.637       7.173      -0.196
 H           8.348       5.026      -0.217
 H          11.850       8.399      -0.126
 H           8.142     -10.125       0.251
 H           8.313       2.496      -0.186
 H           8.113     -12.652       0.384
 H           9.346     -14.828       0.525
 H          11.529     -16.106       0.629
 H          16.217     -17.428       0.736
 H          13.711     -17.396       0.717
 H          20.647     -14.970       0.637
 H          22.082      -2.727       0.249
 H          22.049      -5.248       0.355
 H          22.011      -7.770       0.426
 H          21.972     -10.296       0.489
 H          22.143       2.322       0.013
 H          21.936     -12.823       0.564
 H          18.431     -16.193       0.686
 H          22.114      -0.204       0.122
 H           8.238      -2.554      -0.062
 H           8.203      -5.077       0.031
 H           8.170      -7.600       0.134
 H           8.273      -0.032      -0.137
 C          18.876       3.587      -0.027
 C          20.351       3.573      -0.028
 C          21.064       4.869      -0.061
 C          16.711       4.866      -0.057
 C          18.168       4.856      -0.056
 C          18.909       6.128      -0.071
 C          20.383       6.073      -0.078
 C          12.348       4.928      -0.119
 C          13.805       4.903      -0.089
 C          14.544       6.157      -0.084
 C          16.002       6.139      -0.071
 C          16.750       7.397      -0.067
 C          18.191       7.357      -0.071
 C          11.641       6.220      -0.141
 C          12.388       7.431      -0.119
 C          13.829       7.433      -0.090
 C          14.607       8.671      -0.067
 C          16.002       8.653      -0.056
 C           9.455       5.014      -0.189
 C          10.167       6.201      -0.177
 C          13.632      -7.633       0.445
 C          12.175      -7.628       0.242
 C          11.445      -8.874       0.256
 C           9.969      -8.857       0.242
 C          11.526      -1.337       0.090
 C           9.253     -10.131       0.290
 C          15.806      -8.913       0.382
 C          14.346      -8.897       0.352
 C          15.898      -1.412       0.214
 C          13.606     -10.150       0.359
 C          14.442      -1.388       0.151
 C          12.146     -10.134       0.357
 C          13.705      -2.648      -0.107
 C          11.609       3.679      -0.120
 C          11.407     -11.391       0.407
 C          12.244      -2.601       0.097
 C          10.134       3.700      -0.158
 C           9.931     -11.374       0.364
 C          11.493      -3.848       0.245
 C           9.426       2.471      -0.154
 C           9.220     -12.668       0.410
 C          20.304      -1.453       0.159
 C          17.971     -10.208       0.458
 C          18.816      -1.436       0.214
 C          16.512     -10.187       0.409
 C          18.065      -2.680       0.231
 C          15.971       3.609      -0.057
 C          15.771     -11.429       0.475
 C          16.598      -2.691      -0.031
 C          14.513       3.627      -0.079
 C          14.312     -11.411       0.453
 C          13.773       2.388      -0.097
 C          13.570     -12.668       0.505
 C          15.991      -3.925      -0.588
 C          14.326      -3.915      -0.651
 C          12.316       2.399      -0.096
 C          12.114     -12.655       0.475
 C          13.670      -5.127      -0.004
 C          11.578       1.158      -0.113
 C          11.374     -13.926       0.519
 C          12.217      -5.116       0.194
 C          10.107       1.180      -0.122
 C           9.901     -13.871       0.487
 C          20.980      -2.717       0.200
 C          18.677     -11.483       0.517
 C          20.276      -3.966       0.310
 C          18.137       2.327      -0.008
 C          17.936     -12.728       0.550
 C          18.780      -3.936       0.382
 C          16.679       2.349      -0.053
 C          16.480     -12.704       0.542
 C          18.015      -5.186       0.309
 C          15.940       1.112      -0.011
 C          15.738     -13.956       0.583
 C          16.581      -5.168       0.051
 C          14.482       1.133      -0.025
 C          14.280     -13.937       0.566
 C          15.826      -6.380       0.387
 C          13.722      -0.098       0.147
 C          13.532     -15.192       0.613
 C          14.379      -6.366       0.365
 C          12.269      -0.093      -0.041
 C          12.091     -15.153       0.591
 C          20.948      -5.236       0.305
 C          18.842       1.065       0.009
 C          18.643     -14.016       0.600
 C          20.228      -6.477       0.373
 C          18.116      -0.172       0.053
 C          17.895     -15.226       0.645
 C          18.736      -6.440       0.438
 C          16.659      -0.137       0.185
 C          16.453     -15.230       0.639
 C          18.006      -7.697       0.365
 C          15.674     -16.464       0.689
 C          16.546      -7.667       0.504
 C          14.280     -16.446       0.678
 C          20.907      -7.756       0.395
 C          20.182      -8.987       0.440
 C          18.709      -8.965       0.396
 C          20.862     -10.276       0.490
 C          20.151     -11.502       0.520
 C          11.471      -6.358       0.280
 C          21.029       2.327       0.015
 C          20.829     -12.813       0.562
 C          20.314       1.054       0.050
 C          20.117     -13.999       0.602
 C          21.010      -0.194       0.095
 C           9.983      -6.352       0.145
 C           9.999      -3.838       0.083
 C          10.040      -1.321      -0.045
 C           9.336      -2.571      -0.062
 C           9.302      -5.094       0.032
 C           9.273      -7.614       0.150
 C           9.371      -0.046      -0.127
