   142
 frame    390
 H          22.172       4.851      -0.067
 H          20.938       7.032      -0.099
 H          18.753       8.311      -0.074
 H          14.063       9.635      -0.055
 H          16.571       9.603      -0.037
 H           9.637       7.173      -0.196
 H           8.348       5.026      -0.217
 H          11.850       8.399      -0.126
 H           8.142     -10.125       0.251
 H           8.313       2.496      -0.186
 H           8.113     -12.652       0.384
 H           9.346     -14.828       0.525
 H          11.529     -16.106       0.629
 H          16.217     -17.428       0.736
 H          13.711     -17.396       0.717
 H          20.647     -14.970       0.637
 H          22.082      -2.727       0.249
 H          22.049      -5.248       0.355
 H          22.011      -7.770       0.426
 H          21.972     -10.296       0.489
 H          22.143       2.322       0.013
 H          21.936     -12.823       0.564
 H          18.431     -16.193       0.686
 H          22.114      -0.204       0.122
 H           8.238      -2.554      -0.062
 H           8.203      -5.077       0.031
 H           8.170      -7.600       0.134
 H           8.273      -0.032      -0.137
 C          18.891       3.602      -0.555
 C          20.377       3.593      -0.387
 C          21.080       4.879      -0.250
 C          16.725       4.877      -0.637
 C          18.205       4.878      -0.685
 C          18.929       6.137      -0.464
 C          20.387       6.084      -0.236
 C          12.321       4.957      -0.763
 C          13.803       4.913      -0.679
 C          14.553       6.169      -0.529
 C          16.014       6.153      -0.504
 C          16.758       7.415      -0.431
 C          18.183       7.369      -0.339
 C          11.626       6.232      -0.525
 C          12.400       7.445      -0.384
 C          13.831       7.454      -0.455
 C          14.612       8.699      -0.347
 C          16.012       8.681      -0.335
 C           9.444       5.026      -0.389
 C          10.159       6.213      -0.346
 C          13.635      -7.651      -0.276
 C          12.185      -7.644      -0.226
 C          11.441      -8.896      -0.126
 C           9.979      -8.916       0.026
 C          11.547      -1.356      -0.448
 C           9.245     -10.165       0.070
 C          15.824      -8.928      -0.305
 C          14.352      -8.909      -0.332
 C          15.906      -1.383      -0.183
 C          13.625     -10.176      -0.158
 C          14.454      -1.362      -0.206
 C          12.154     -10.165      -0.126
 C          13.726      -2.589      -0.177
 C          11.602       3.696      -0.644
 C          11.404     -11.436      -0.195
 C          12.285      -2.600      -0.250
 C          10.119       3.723      -0.530
 C           9.923     -11.415      -0.032
 C          11.575      -3.861      -0.220
 C           9.411       2.490      -0.351
 C           9.213     -12.683       0.193
 C          20.312      -1.430      -0.114
 C          17.976     -10.235      -0.019
 C          18.824      -1.446      -0.282
 C          16.505     -10.210      -0.115
 C          18.049      -2.675      -0.118
 C          15.977       3.624      -0.602
 C          15.778     -11.468      -0.137
 C          16.610      -2.631      -0.111
 C          14.519       3.638      -0.610
 C          14.317     -11.451      -0.165
 C          13.790       2.390      -0.541
 C          13.562     -12.713      -0.152
 C          15.885      -3.922      -0.044
 C          14.404      -3.900      -0.066
 C          12.318       2.410      -0.514
 C          12.089     -12.725      -0.236
 C          13.686      -5.184      -0.098
 C          11.572       1.165      -0.439
 C          11.363     -13.970       0.089
 C          12.250      -5.135      -0.148
 C          10.106       1.227      -0.283
 C           9.899     -13.886       0.303
 C          20.974      -2.729      -0.010
 C          18.693     -11.520      -0.087
 C          20.227      -3.968       0.007
 C          18.145       2.338      -0.422
 C          17.973     -12.793      -0.163
 C          18.723      -3.947      -0.043
 C          16.668       2.349      -0.511
 C          16.504     -12.747      -0.104
 C          18.017      -5.204      -0.033
 C          15.959       1.067      -0.616
 C          15.750     -13.991       0.099
 C          16.571      -5.218      -0.043
 C          14.485       1.089      -0.637
 C          14.284     -13.975       0.075
 C          15.837      -6.454      -0.029
 C          13.739      -0.147      -0.509
 C          13.532     -15.229       0.228
 C          14.390      -6.440      -0.051
 C          12.284      -0.115      -0.467
 C          12.092     -15.189       0.304
 C          20.933      -5.234       0.102
 C          18.865       1.074      -0.301
 C          18.667     -14.055       0.174
 C          20.236      -6.525       0.086
 C          18.116      -0.189      -0.356
 C          17.904     -15.259       0.349
 C          18.758      -6.470      -0.100
 C          16.667      -0.189      -0.456
 C          16.467     -15.264       0.264
 C          18.021      -7.721      -0.093
 C          15.681     -16.502       0.393
 C          16.571      -7.679      -0.218
 C          14.279     -16.482       0.388
 C          20.901      -7.812       0.296
 C          20.185      -9.036       0.232
 C          18.724      -8.985       0.017
 C          20.880     -10.309       0.264
 C          20.178     -11.542       0.114
 C          11.483      -6.381      -0.260
 C          21.051       2.350      -0.182
 C          20.841     -12.830       0.349
 C          20.324       1.097      -0.116
 C          20.124     -14.019       0.427
 C          21.003      -0.150       0.017
 C           9.991      -6.398      -0.144
 C          10.068      -3.844      -0.241
 C          10.055      -1.297      -0.330
 C           9.346      -2.583      -0.274
 C           9.319      -5.093      -0.183
 C           9.284      -7.667       0.057
 C           9.386      -0.003      -0.206
