   142
 frame    459
 H          22.172       4.851      -0.067
 H          20.938       7.032      -0.099
 H          18.753       8.311      -0.074
 H          14.063       9.635      -0.055
 H          16.571       9.603      -0.037
 H           9.637       7.173      -0.196
 H           8.348       5.026      -0.217
 H          11.850       8.399      -0.126
 H           8.142     -10.125       0.251
 H           8.313       2.496      -0.186
 H           8.113     -12.652       0.384
 H           9.346     -14.828       0.525
 H          11.529     -16.106       0.629
 H          16.217     -17.428       0.736
 H          13.711     -17.396       0.717
 H          20.647     -14.970       0.637
 H          22.082      -2.727       0.249
 H          22.049      -5.248       0.355
 H          22.011      -7.770       0.426
 H          21.972     -10.296       0.489
 H          22.143       2.322       0.013
 H          21.936     -12.823       0.564
 H          18.431     -16.193       0.686
 H          22.114      -0.204       0.122
 H           8.238      -2.554      -0.062
 H           8.203      -5.077       0.031
 H           8.170      -7.600       0.134
 H           8.273      -0.032      -0.137
 C          18.907       3.617      -0.500
 C          20.396       3.578      -0.460
 C          21.087       4.881      -0.267
 C          16.723       4.896      -0.580
 C          18.175       4.881      -0.440
 C          18.909       6.123      -0.176
 C          20.393       6.066      -0.107
 C          12.357       4.965      -0.503
 C          13.807       4.937      -0.625
 C          14.547       6.179      -0.350
 C          16.008       6.150      -0.329
 C          16.776       7.355      -0.081
 C          18.204       7.350      -0.047
 C          11.639       6.216      -0.242
 C          12.376       7.426      -0.090
 C          13.808       7.397      -0.108
 C          14.605       8.631      -0.064
 C          16.007       8.612      -0.044
 C           9.444       5.028      -0.401
 C          10.161       6.199      -0.201
 C          13.640      -7.651      -0.206
 C          12.175      -7.651      -0.258
 C          11.434      -8.913      -0.249
 C           9.957      -8.897      -0.035
 C          11.564      -1.334      -0.175
 C           9.217     -10.162      -0.005
 C          15.818      -8.941      -0.150
 C          14.358      -8.924      -0.172
 C          15.902      -1.404      -0.180
 C          13.616     -10.191      -0.168
 C          14.449      -1.385      -0.201
 C          12.135     -10.190      -0.122
 C          13.736      -2.641      -0.146
 C          11.598       3.715      -0.601
 C          11.394     -11.451      -0.091
 C          12.283      -2.614       0.017
 C          10.101       3.713      -0.572
 C           9.902     -11.416      -0.084
 C          11.551      -3.857       0.180
 C           9.383       2.483      -0.438
 C           9.216     -12.699       0.204
 C          20.234      -1.421       0.193
 C          17.994     -10.260      -0.036
 C          18.791      -1.424      -0.029
 C          16.514     -10.231      -0.133
 C          18.020      -2.686       0.134
 C          15.985       3.625      -0.630
 C          15.783     -11.484      -0.190
 C          16.582      -2.671      -0.087
 C          14.514       3.642      -0.664
 C          14.322     -11.475      -0.205
 C          13.774       2.396      -0.556
 C          13.575     -12.742      -0.090
 C          15.846      -3.906      -0.193
 C          14.443      -3.892      -0.225
 C          12.298       2.432      -0.531
 C          12.130     -12.712       0.049
 C          13.708      -5.127      -0.078
 C          11.563       1.175      -0.578
 C          11.381     -13.927       0.392
 C          12.252      -5.119       0.077
 C          10.081       1.193      -0.384
 C           9.900     -13.874       0.469
 C          20.931      -2.697       0.331
 C          18.701     -11.539       0.004
 C          20.224      -3.957       0.441
 C          18.166       2.361      -0.445
 C          17.936     -12.783       0.123
 C          18.712      -3.945       0.347
 C          16.685       2.358      -0.512
 C          16.491     -12.779      -0.050
 C          17.987      -5.196       0.211
 C          15.943       1.087      -0.458
 C          15.741     -13.990       0.286
 C          16.541      -5.162      -0.010
 C          14.483       1.111      -0.470
 C          14.277     -13.979       0.262
 C          15.837      -6.432      -0.017
 C          13.737      -0.136      -0.439
 C          13.513     -15.162       0.567
 C          14.385      -6.414      -0.042
 C          12.275      -0.101      -0.503
 C          12.084     -15.145       0.614
 C          20.899      -5.243       0.433
 C          18.870       1.081      -0.434
 C          18.642     -14.017       0.458
 C          20.163      -6.514       0.372
 C          18.123      -0.180      -0.383
 C          17.906     -15.213       0.661
 C          18.725      -6.476       0.132
 C          16.660      -0.173      -0.386
 C          16.483     -15.191       0.591
 C          18.022      -7.716      -0.154
 C          15.675     -16.430       0.669
 C          16.563      -7.691      -0.146
 C          14.276     -16.416       0.658
 C          20.874      -7.767       0.432
 C          20.202      -9.019       0.149
 C          18.730      -9.000      -0.099
 C          20.908     -10.303       0.193
 C          20.185     -11.541       0.070
 C          11.499      -6.387      -0.017
 C          21.084       2.344      -0.273
 C          20.836     -12.843       0.357
 C          20.341       1.068      -0.197
 C          20.118     -14.002       0.583
 C          20.980      -0.180       0.161
 C          10.045      -6.387       0.173
 C          10.046      -3.836       0.224
 C          10.112      -1.291       0.003
 C           9.381      -2.554       0.100
 C           9.343      -5.098       0.176
 C           9.301      -7.620       0.205
 C           9.399      -0.042      -0.047
