   142
 frame    530
 H          22.172       4.851      -0.067
 H          20.938       7.032      -0.099
 H          18.753       8.311      -0.074
 H          14.063       9.635      -0.055
 H          16.571       9.603      -0.037
 H           9.637       7.173      -0.196
 H           8.348       5.026      -0.217
 H          11.850       8.399      -0.126
 H           8.142     -10.125       0.251
 H           8.313       2.496      -0.186
 H           8.113     -12.652       0.384
 H           9.346     -14.828       0.525
 H          11.529     -16.106       0.629
 H          16.217     -17.428       0.736
 H          13.711     -17.396       0.717
 H          20.647     -14.970       0.637
 H          22.082      -2.727       0.249
 H          22.049      -5.248       0.355
 H          22.011      -7.770       0.426
 H          21.972     -10.296       0.489
 H          22.143       2.322       0.013
 H          21.936     -12.823       0.564
 H          18.431     -16.193       0.686
 H          22.114      -0.204       0.122
 H           8.238      -2.554      -0.062
 H           8.203      -5.077       0.031
 H           8.170      -7.600       0.134
 H           8.273      -0.032      -0.137
 C          18.894       3.581       0.046
 C          20.352       3.556       0.052
 C          21.046       4.881      -0.019
 C          16.709       4.840      -0.287
 C          18.165       4.838      -0.121
 C          18.893       6.136      -0.134
 C          20.362       6.091      -0.038
 C          12.354       4.899      -0.191
 C          13.806       4.880      -0.330
 C          14.548       6.128      -0.297
 C          16.002       6.108      -0.290
 C          16.741       7.357      -0.224
 C          18.183       7.367      -0.176
 C          11.656       6.228      -0.215
 C          12.400       7.437      -0.207
 C          13.844       7.394      -0.247
 C          14.611       8.644      -0.144
 C          16.005       8.629      -0.142
 C           9.473       5.018      -0.165
 C          10.190       6.213      -0.159
 C          13.647      -7.661      -0.065
 C          12.180      -7.649      -0.167
 C          11.460      -8.865       0.137
 C           9.999      -8.842       0.219
 C          11.540      -1.345      -0.198
 C           9.259     -10.103       0.255
 C          15.807      -8.945      -0.063
 C          14.360      -8.923      -0.073
 C          15.916      -1.390      -0.023
 C          13.621     -10.157       0.120
 C          14.449      -1.380      -0.035
 C          12.150     -10.120       0.311
 C          13.720      -2.632       0.006
 C          11.593       3.661      -0.038
 C          11.403     -11.371       0.448
 C          12.255      -2.627      -0.095
 C          10.128       3.685      -0.090
 C           9.932     -11.348       0.425
 C          11.527      -3.860      -0.057
 C           9.426       2.447      -0.152
 C           9.236     -12.669       0.419
 C          20.284      -1.457       0.104
 C          17.976     -10.201       0.402
 C          18.819      -1.438      -0.063
 C          16.499     -10.195       0.161
 C          18.072      -2.698       0.017
 C          15.977       3.613      -0.371
 C          15.770     -11.448       0.126
 C          16.603      -2.671       0.035
 C          14.518       3.634      -0.384
 C          14.316     -11.433       0.108
 C          13.796       2.388      -0.288
 C          13.576     -12.659       0.244
 C          15.878      -3.919      -0.095
 C          14.420      -3.902      -0.114
 C          12.311       2.392      -0.107
 C          12.124     -12.638       0.382
 C          13.678      -5.140       0.078
 C          11.591       1.145      -0.209
 C          11.395     -13.945       0.445
 C          12.218      -5.118      -0.022
 C          10.128       1.168      -0.118
 C           9.919     -13.883       0.501
 C          20.996      -2.720       0.081
 C          18.684     -11.465       0.552
 C          20.291      -3.973      -0.040
 C          18.152       2.328      -0.028
 C          17.921     -12.710       0.452
 C          18.769      -3.945       0.090
 C          16.673       2.347      -0.256
 C          16.470     -12.693       0.285
 C          18.044      -5.181       0.087
 C          15.936       1.103      -0.368
 C          15.737     -13.943       0.355
 C          16.576      -5.174       0.120
 C          14.502       1.119      -0.389
 C          14.285     -13.924       0.332
 C          15.845      -6.429       0.144
 C          13.749      -0.111      -0.290
 C          13.549     -15.171       0.437
 C          14.379      -6.407       0.120
 C          12.284      -0.109      -0.403
 C          12.105     -15.175       0.482
 C          20.957      -5.245       0.194
 C          18.837       1.058      -0.083
 C          18.622     -14.037       0.516
 C          20.209      -6.483       0.283
 C          18.118      -0.178      -0.287
 C          17.873     -15.250       0.529
 C          18.740      -6.473       0.089
 C          16.650      -0.147      -0.258
 C          16.440     -15.205       0.458
 C          18.017      -7.726      -0.058
 C          15.672     -16.446       0.581
 C          16.548      -7.701      -0.026
 C          14.280     -16.432       0.567
 C          20.890      -7.742       0.426
 C          20.156      -8.969       0.418
 C          18.698      -8.966       0.268
 C          20.855     -10.245       0.450
 C          20.145     -11.479       0.571
 C          11.483      -6.386      -0.045
 C          21.032       2.312       0.007
 C          20.819     -12.821       0.576
 C          20.295       1.045       0.051
 C          20.099     -14.017       0.607
 C          20.993      -0.205       0.135
 C          10.017      -6.352       0.074
 C          10.015      -3.853      -0.280
 C          10.066      -1.336      -0.097
 C           9.337      -2.578      -0.159
 C           9.305      -5.099      -0.069
 C           9.293      -7.589       0.196
 C           9.389      -0.069      -0.079
