   142
 frame     37
 H          22.172       4.851      -0.067
 H          20.938       7.032      -0.099
 H          18.753       8.311      -0.074
 H          14.063       9.635      -0.055
 H          16.571       9.603      -0.037
 H           9.637       7.173      -0.196
 H           8.348       5.026      -0.217
 H          11.850       8.399      -0.126
 H           8.142     -10.125       0.251
 H           8.313       2.496      -0.186
 H           8.113     -12.652       0.384
 H           9.346     -14.828       0.525
 H          11.529     -16.106       0.629
 H          16.217     -17.428       0.736
 H          13.711     -17.396       0.717
 H          20.647     -14.970       0.637
 H          22.082      -2.727       0.249
 H          22.049      -5.248       0.355
 H          22.011      -7.770       0.426
 H          21.972     -10.296       0.489
 H          22.143       2.322       0.013
 H          21.936     -12.823       0.564
 H          18.431     -16.193       0.686
 H          22.114      -0.204       0.122
 H           8.238      -2.554      -0.062
 H           8.203      -5.077       0.031
 H           8.170      -7.600       0.134
 H           8.273      -0.032      -0.137
 C          18.875       3.586      -0.026
 C          20.351       3.572      -0.027
 C          21.064       4.868      -0.061
 C          16.711       4.866      -0.057
 C          18.168       4.855      -0.055
 C          18.909       6.128      -0.071
 C          20.383       6.073      -0.078
 C          12.348       4.926      -0.119
 C          13.805       4.902      -0.089
 C          14.544       6.156      -0.084
 C          16.003       6.138      -0.070
 C          16.750       7.396      -0.067
 C          18.191       7.357      -0.071
 C          11.641       6.219      -0.141
 C          12.388       7.431      -0.119
 C          13.829       7.433      -0.091
 C          14.607       8.670      -0.067
 C          16.002       8.652      -0.056
 C           9.455       5.013      -0.189
 C          10.167       6.201      -0.177
 C          13.632      -7.632       0.453
 C          12.173      -7.627       0.247
 C          11.444      -8.875       0.254
 C           9.970      -8.858       0.241
 C          11.528      -1.338       0.094
 C           9.254     -10.130       0.290
 C          15.806      -8.912       0.387
 C          14.346      -8.897       0.357
 C          15.895      -1.414       0.199
 C          13.606     -10.150       0.357
 C          14.444      -1.388       0.134
 C          12.147     -10.134       0.355
 C          13.707      -2.659      -0.124
 C          11.610       3.677      -0.120
 C          11.407     -11.390       0.407
 C          12.243      -2.600       0.087
 C          10.135       3.699      -0.157
 C           9.932     -11.373       0.364
 C          11.498      -3.847       0.242
 C           9.427       2.470      -0.154
 C           9.220     -12.668       0.410
 C          20.305      -1.452       0.162
 C          17.971     -10.207       0.457
 C          18.815      -1.437       0.218
 C          16.512     -10.188       0.407
 C          18.065      -2.680       0.224
 C          15.971       3.609      -0.059
 C          15.771     -11.429       0.474
 C          16.600      -2.698      -0.051
 C          14.513       3.628      -0.080
 C          14.312     -11.411       0.452
 C          13.772       2.391      -0.099
 C          13.571     -12.667       0.505
 C          15.989      -3.926      -0.603
 C          14.327      -3.914      -0.667
 C          12.316       2.399      -0.097
 C          12.115     -12.654       0.475
 C          13.670      -5.120      -0.022
 C          11.576       1.161      -0.116
 C          11.374     -13.926       0.519
 C          12.214      -5.117       0.184
 C          10.107       1.180      -0.123
 C           9.901     -13.871       0.487
 C          20.982      -2.717       0.200
 C          18.677     -11.482       0.517
 C          20.277      -3.966       0.317
 C          18.137       2.327      -0.009
 C          17.936     -12.727       0.550
 C          18.775      -3.935       0.378
 C          16.680       2.351      -0.055
 C          16.479     -12.703       0.542
 C          18.018      -5.189       0.299
 C          15.941       1.114      -0.006
 C          15.738     -13.955       0.583
 C          16.584      -5.162       0.034
 C          14.481       1.134      -0.020
 C          14.280     -13.937       0.566
 C          15.825      -6.382       0.368
 C          13.722      -0.101       0.155
 C          13.532     -15.192       0.613
 C          14.380      -6.368       0.347
 C          12.267      -0.092      -0.036
 C          12.091     -15.153       0.591
 C          20.950      -5.237       0.305
 C          18.844       1.066       0.006
 C          18.643     -14.016       0.600
 C          20.227      -6.476       0.378
 C          18.118      -0.170       0.057
 C          17.895     -15.226       0.645
 C          18.733      -6.437       0.441
 C          16.658      -0.138       0.194
 C          16.453     -15.230       0.639
 C          18.006      -7.696       0.369
 C          15.674     -16.464       0.689
 C          16.546      -7.665       0.512
 C          14.280     -16.446       0.678
 C          20.907      -7.757       0.394
 C          20.182      -8.987       0.438
 C          18.709      -8.965       0.394
 C          20.861     -10.275       0.491
 C          20.150     -11.502       0.520
 C          11.473      -6.356       0.283
 C          21.028       2.326       0.015
 C          20.829     -12.813       0.562
 C          20.314       1.053       0.049
 C          20.117     -13.999       0.602
 C          21.011      -0.194       0.094
 C           9.983      -6.352       0.149
 C           9.996      -3.837       0.090
 C          10.039      -1.320      -0.040
 C           9.332      -2.571      -0.062
 C           9.298      -5.095       0.032
 C           9.272      -7.615       0.150
 C           9.370      -0.044      -0.127
