   142
 frame    810
 H          22.172       4.851      -0.067
 H          20.938       7.032      -0.099
 H          18.753       8.311      -0.074
 H          14.063       9.635      -0.055
 H          16.571       9.603      -0.037
 H           9.637       7.173      -0.196
 H           8.348       5.026      -0.217
 H          11.850       8.399      -0.126
 H           8.142     -10.125       0.251
 H           8.313       2.496      -0.186
 H           8.113     -12.652       0.384
 H           9.346     -14.828       0.525
 H          11.529     -16.106       0.629
 H          16.217     -17.428       0.736
 H          13.711     -17.396       0.717
 H          20.647     -14.970       0.637
 H          22.082      -2.727       0.249
 H          22.049      -5.248       0.355
 H          22.011      -7.770       0.426
 H          21.972     -10.296       0.489
 H          22.143       2.322       0.013
 H          21.936     -12.823       0.564
 H          18.431     -16.193       0.686
 H          22.114      -0.204       0.122
 H           8.238      -2.554      -0.062
 H           8.203      -5.077       0.031
 H           8.170      -7.600       0.134
 H           8.273      -0.032      -0.137
 C          18.914       3.609       0.135
 C          20.378       3.576       0.023
 C          21.062       4.870       0.014
 C          16.727       4.900       0.178
 C          18.186       4.847       0.004
 C          18.905       6.115      -0.021
 C          20.371       6.070      -0.010
 C          12.337       4.927      -0.051
 C          13.791       4.939       0.147
 C          14.539       6.201       0.196
 C          15.998       6.183       0.213
 C          16.769       7.427       0.031
 C          18.220       7.350       0.012
 C          11.653       6.204      -0.096
 C          12.367       7.417      -0.038
 C          13.814       7.462       0.002
 C          14.602       8.694      -0.114
 C          16.011       8.678      -0.110
 C           9.455       5.021      -0.131
 C          10.184       6.199      -0.123
 C          13.611      -7.637       1.010
 C          12.178      -7.628       0.720
 C          11.422      -8.874       0.671
 C           9.954      -8.858       0.330
 C          11.517      -1.334       0.315
 C           9.243     -10.151       0.258
 C          15.811      -8.942       1.110
 C          14.306      -8.925       1.083
 C          15.902      -1.416       0.758
 C          13.536     -10.163       0.992
 C          14.427      -1.396       0.736
 C          12.087     -10.168       0.762
 C          13.681      -2.642       0.507
 C          11.567       3.704       0.034
 C          11.364     -11.415       0.540
 C          12.198      -2.622       0.397
 C          10.105       3.705      -0.116
 C           9.903     -11.378       0.376
 C          11.427      -3.843       0.427
 C           9.419       2.499      -0.183
 C           9.222     -12.670       0.461
 C          20.292      -1.456       0.357
 C          18.014     -10.240       0.871
 C          18.819      -1.424       0.467
 C          16.557     -10.204       1.046
 C          18.108      -2.690       0.523
 C          15.981       3.658       0.364
 C          15.778     -11.447       0.906
 C          16.627      -2.668       0.568
 C          14.492       3.675       0.342
 C          14.295     -11.423       0.882
 C          13.703       2.448       0.533
 C          13.572     -12.687       0.747
 C          15.874      -3.897       0.408
 C          14.408      -3.880       0.358
 C          12.253       2.467       0.330
 C          12.112     -12.661       0.539
 C          13.649      -5.101       0.585
 C          11.542       1.191       0.318
 C          11.376     -13.914       0.574
 C          12.171      -5.091       0.491
 C          10.076       1.184      -0.014
 C           9.907     -13.869       0.556
 C          20.984      -2.699       0.372
 C          18.709     -11.500       0.663
 C          20.322      -3.959       0.505
 C          18.186       2.394       0.410
 C          17.938     -12.729       0.608
 C          18.849      -3.936       0.590
 C          16.733       2.408       0.574
 C          16.479     -12.727       0.789
 C          18.074      -5.167       0.626
 C          15.961       1.163       0.728
 C          15.734     -13.987       0.863
 C          16.602      -5.140       0.673
 C          14.445       1.184       0.695
 C          14.278     -13.970       0.861
 C          15.836      -6.367       0.965
 C          13.723      -0.088       0.721
 C          13.512     -15.221       0.716
 C          14.353      -6.347       0.922
 C          12.281      -0.079       0.427
 C          12.066     -15.145       0.684
 C          20.953      -5.246       0.488
 C          18.858       1.099       0.449
 C          18.638     -14.006       0.663
 C          20.222      -6.468       0.564
 C          18.092      -0.147       0.549
 C          17.915     -15.213       0.731
 C          18.757      -6.450       0.673
 C          16.642      -0.122       0.773
 C          16.474     -15.258       0.747
 C          17.993      -7.696       0.848
 C          15.683     -16.484       0.641
 C          16.542      -7.680       1.064
 C          14.273     -16.466       0.625
 C          20.914      -7.737       0.516
 C          20.191      -8.979       0.534
 C          18.720      -8.965       0.814
 C          20.868     -10.294       0.469
 C          20.179     -11.504       0.559
 C          11.449      -6.358       0.502
 C          21.041       2.342      -0.006
 C          20.824     -12.814       0.623
 C          20.336       1.057       0.182
 C          20.107     -13.999       0.685
 C          21.014      -0.212       0.211
 C           9.988      -6.339       0.339
 C           9.955      -3.835       0.267
 C          10.061      -1.332       0.117
 C           9.333      -2.553       0.107
 C           9.298      -5.107       0.214
 C           9.275      -7.592       0.258
 C           9.373      -0.065      -0.027
