   142
 frame    881
 H          22.172       4.851      -0.067
 H          20.938       7.032      -0.099
 H          18.753       8.311      -0.074
 H          14.063       9.635      -0.055
 H          16.571       9.603      -0.037
 H           9.637       7.173      -0.196
 H           8.348       5.026      -0.217
 H          11.850       8.399      -0.126
 H           8.142     -10.125       0.251
 H           8.313       2.496      -0.186
 H           8.113     -12.652       0.384
 H           9.346     -14.828       0.525
 H          11.529     -16.106       0.629
 H          16.217     -17.428       0.736
 H          13.711     -17.396       0.717
 H          20.647     -14.970       0.637
 H          22.082      -2.727       0.249
 H          22.049      -5.248       0.355
 H          22.011      -7.770       0.426
 H          21.972     -10.296       0.489
 H          22.143       2.322       0.013
 H          21.936     -12.823       0.564
 H          18.431     -16.193       0.686
 H          22.114      -0.204       0.122
 H           8.238      -2.554      -0.062
 H           8.203      -5.077       0.031
 H           8.170      -7.600       0.134
 H           8.273      -0.032      -0.137
 C          18.898       3.590       0.261
 C          20.350       3.542       0.178
 C          21.058       4.849       0.055
 C          16.721       4.907       0.054
 C          18.185       4.851      -0.010
 C          18.930       6.113      -0.208
 C          20.391       6.060      -0.116
 C          12.318       4.925      -0.088
 C          13.794       4.939       0.013
 C          14.541       6.159      -0.118
 C          16.009       6.146      -0.090
 C          16.790       7.403      -0.150
 C          18.221       7.367      -0.195
 C          11.622       6.212      -0.282
 C          12.363       7.442      -0.250
 C          13.793       7.435      -0.171
 C          14.617       8.699      -0.225
 C          16.009       8.677      -0.207
 C           9.459       4.995      -0.077
 C          10.158       6.183      -0.214
 C          13.625      -7.640       0.828
 C          12.132      -7.645       0.750
 C          11.374      -8.889       0.769
 C           9.930      -8.839       0.607
 C          11.464      -1.322       0.546
 C           9.232     -10.095       0.492
 C          15.808      -8.931       0.699
 C          14.326      -8.910       0.670
 C          15.902      -1.347       0.965
 C          13.587     -10.152       0.730
 C          14.415      -1.330       0.924
 C          12.116     -10.127       0.817
 C          13.628      -2.578       0.961
 C          11.572       3.674       0.159
 C          11.378     -11.366       0.697
 C          12.148      -2.580       0.840
 C          10.135       3.671       0.041
 C           9.925     -11.340       0.582
 C          11.418      -3.829       0.679
 C           9.408       2.446       0.035
 C           9.218     -12.653       0.524
 C          20.333      -1.432       0.443
 C          17.987     -10.211       0.923
 C          18.858      -1.410       0.696
 C          16.520     -10.190       0.793
 C          18.137      -2.647       0.966
 C          15.970       3.651       0.198
 C          15.766     -11.461       0.708
 C          16.651      -2.615       1.033
 C          14.508       3.673       0.157
 C          14.306     -11.441       0.678
 C          13.744       2.414       0.280
 C          13.553     -12.695       0.604
 C          15.882      -3.874       1.006
 C          14.356      -3.859       0.959
 C          12.267       2.434       0.355
 C          12.093     -12.648       0.510
 C          13.593      -5.119       1.039
 C          11.504       1.213       0.409
 C          11.356     -13.930       0.379
 C          12.110      -5.092       0.925
 C          10.068       1.179       0.232
 C           9.891     -13.864       0.432
 C          21.004      -2.700       0.342
 C          18.696     -11.459       0.802
 C          20.303      -3.957       0.504
 C          18.170       2.366       0.463
 C          17.956     -12.722       0.591
 C          18.838      -3.922       0.835
 C          16.697       2.381       0.346
 C          16.485     -12.733       0.647
 C          18.108      -5.172       1.058
 C          15.944       1.131       0.359
 C          15.740     -13.959       0.563
 C          16.618      -5.149       1.114
 C          14.451       1.151       0.323
 C          14.278     -13.939       0.542
 C          15.835      -6.402       1.147
 C          13.725      -0.098       0.542
 C          13.499     -15.207       0.533
 C          14.345      -6.382       1.113
 C          12.230      -0.065       0.480
 C          12.068     -15.176       0.451
 C          20.966      -5.246       0.449
 C          18.898       1.118       0.544
 C          18.668     -14.020       0.445
 C          20.264      -6.492       0.645
 C          18.130      -0.145       0.598
 C          17.922     -15.245       0.516
 C          18.796      -6.456       0.875
 C          16.640      -0.129       0.604
 C          16.490     -15.241       0.570
 C          18.036      -7.721       0.856
 C          15.678     -16.484       0.559
 C          16.537      -7.669       0.867
 C          14.278     -16.467       0.544
 C          20.925      -7.758       0.619
 C          20.200      -8.971       0.801
 C          18.749      -8.986       0.906
 C          20.877     -10.243       0.683
 C          20.151     -11.468       0.722
 C          11.393      -6.361       0.726
 C          21.040       2.300       0.209
 C          20.818     -12.795       0.674
 C          20.339       1.055       0.397
 C          20.133     -13.997       0.539
 C          21.034      -0.191       0.334
 C           9.943      -6.362       0.403
 C           9.976      -3.830       0.272
 C          10.007      -1.302       0.242
 C           9.311      -2.551       0.073
 C           9.286      -5.100       0.175
 C           9.252      -7.613       0.377
 C           9.346      -0.044       0.110
