   142
 frame     94
 H          22.172       4.851      -0.067
 H          20.938       7.032      -0.099
 H          18.753       8.311      -0.074
 H          14.063       9.635      -0.055
 H          16.571       9.603      -0.037
 H           9.637       7.173      -0.196
 H           8.348       5.026      -0.217
 H          11.850       8.399      -0.126
 H           8.142     -10.125       0.251
 H           8.313       2.496      -0.186
 H           8.113     -12.652       0.384
 H           9.346     -14.828       0.525
 H          11.529     -16.106       0.629
 H          16.217     -17.428       0.736
 H          13.711     -17.396       0.717
 H          20.647     -14.970       0.637
 H          22.082      -2.727       0.249
 H          22.049      -5.248       0.355
 H          22.011      -7.770       0.426
 H          21.972     -10.296       0.489
 H          22.143       2.322       0.013
 H          21.936     -12.823       0.564
 H          18.431     -16.193       0.686
 H          22.114      -0.204       0.122
 H           8.238      -2.554      -0.062
 H           8.203      -5.077       0.031
 H           8.170      -7.600       0.134
 H           8.273      -0.032      -0.137
 C          18.867       3.579      -0.020
 C          20.345       3.552      -0.114
 C          21.059       4.841      -0.095
 C          16.706       4.866      -0.076
 C          18.152       4.830      -0.134
 C          18.884       6.092      -0.095
 C          20.363       6.045      -0.049
 C          12.361       4.902      -0.192
 C          13.805       4.907      -0.108
 C          14.551       6.141      -0.134
 C          15.994       6.122      -0.123
 C          16.741       7.369      -0.077
 C          18.182       7.333      -0.049
 C          11.664       6.183      -0.171
 C          12.398       7.408      -0.103
 C          13.842       7.408      -0.102
 C          14.609       8.655      -0.060
 C          16.005       8.636      -0.047
 C           9.458       4.983      -0.232
 C          10.182       6.169      -0.156
 C          13.632      -7.675      -0.085
 C          12.168      -7.635       0.026
 C          11.416      -8.860       0.402
 C           9.932      -8.854       0.407
 C          11.523      -1.347      -0.274
 C           9.242     -10.119       0.304
 C          15.817      -8.934       0.245
 C          14.342      -8.915       0.213
 C          15.921      -1.401      -0.408
 C          13.602     -10.141       0.558
 C          14.456      -1.385      -0.443
 C          12.133     -10.132       0.584
 C          13.679      -2.656      -0.465
 C          11.613       3.668      -0.103
 C          11.402     -11.375       0.418
 C          12.234      -2.636      -0.353
 C          10.140       3.675      -0.241
 C           9.935     -11.346       0.273
 C          11.484      -3.862      -0.327
 C           9.415       2.469      -0.136
 C           9.223     -12.642       0.363
 C          20.284      -1.456       0.182
 C          17.978     -10.204       0.679
 C          18.842      -1.438      -0.130
 C          16.510     -10.179       0.606
 C          18.099      -2.703      -0.241
 C          15.966       3.638       0.098
 C          15.766     -11.431       0.632
 C          16.668      -2.691      -0.408
 C          14.511       3.654       0.070
 C          14.305     -11.414       0.612
 C          13.781       2.395       0.102
 C          13.564     -12.658       0.484
 C          15.920      -3.936      -0.460
 C          14.396      -3.914      -0.491
 C          12.314       2.417       0.121
 C          12.115     -12.630       0.392
 C          13.643      -5.153      -0.372
 C          11.553       1.158       0.034
 C          11.384     -13.898       0.484
 C          12.201      -5.125      -0.269
 C          10.067       1.194       0.041
 C           9.906     -13.845       0.508
 C          20.993      -2.711       0.229
 C          18.677     -11.467       0.532
 C          20.271      -3.962       0.163
 C          18.137       2.348       0.216
 C          17.929     -12.699       0.473
 C          18.805      -3.958      -0.180
 C          16.673       2.366       0.148
 C          16.476     -12.691       0.524
 C          18.068      -5.196      -0.151
 C          15.952       1.106      -0.133
 C          15.733     -13.937       0.530
 C          16.632      -5.188      -0.297
 C          14.477       1.118      -0.142
 C          14.281     -13.919       0.512
 C          15.858      -6.453      -0.224
 C          13.735      -0.114      -0.361
 C          13.537     -15.170       0.599
 C          14.384      -6.432      -0.249
 C          12.261      -0.112      -0.240
 C          12.094     -15.133       0.609
 C          20.959      -5.239       0.319
 C          18.861       1.068       0.163
 C          18.632     -13.987       0.568
 C          20.215      -6.467       0.389
 C          18.139      -0.181      -0.142
 C          17.892     -15.206       0.664
 C          18.759      -6.470       0.069
 C          16.664      -0.157      -0.300
 C          16.449     -15.205       0.627
 C          18.028      -7.705       0.148
 C          15.676     -16.450       0.698
 C          16.563      -7.705      -0.027
 C          14.280     -16.432       0.687
 C          20.903      -7.737       0.516
 C          20.205      -8.979       0.599
 C          18.726      -8.956       0.531
 C          20.865     -10.264       0.510
 C          20.146     -11.477       0.435
 C          11.456      -6.381      -0.090
 C          21.036       2.328       0.018
 C          20.827     -12.793       0.516
 C          20.344       1.067       0.207
 C          20.111     -13.978       0.624
 C          21.008      -0.196       0.226
 C          10.003      -6.344       0.172
 C          10.012      -3.841      -0.064
 C          10.068      -1.330      -0.021
 C           9.328      -2.565      -0.046
 C           9.296      -5.096       0.051
 C           9.279      -7.587       0.287
 C           9.378      -0.057       0.013
