   142
 frame    889
 H          22.172       4.851      -0.067
 H          20.938       7.032      -0.099
 H          18.753       8.311      -0.074
 H          14.063       9.635      -0.055
 H          16.571       9.603      -0.037
 H           9.637       7.173      -0.196
 H           8.348       5.026      -0.217
 H          11.850       8.399      -0.126
 H           8.142     -10.125       0.251
 H           8.313       2.496      -0.186
 H           8.113     -12.652       0.384
 H           9.346     -14.828       0.525
 H          11.529     -16.106       0.629
 H          16.217     -17.428       0.736
 H          13.711     -17.396       0.717
 H          20.647     -14.970       0.637
 H          22.082      -2.727       0.249
 H          22.049      -5.248       0.355
 H          22.011      -7.770       0.426
 H          21.972     -10.296       0.489
 H          22.143       2.322       0.013
 H          21.936     -12.823       0.564
 H          18.431     -16.193       0.686
 H          22.114      -0.204       0.122
 H           8.238      -2.554      -0.062
 H           8.203      -5.077       0.031
 H           8.170      -7.600       0.134
 H           8.273      -0.032      -0.137
 C          18.863       3.601       0.259
 C          20.347       3.570       0.191
 C          21.076       4.848       0.061
 C          16.736       4.904       0.060
 C          18.189       4.858      -0.051
 C          18.952       6.126      -0.208
 C          20.414       6.055      -0.074
 C          12.325       4.934      -0.121
 C          13.771       4.944       0.011
 C          14.548       6.197      -0.029
 C          16.008       6.172      -0.004
 C          16.750       7.412      -0.179
 C          18.220       7.356      -0.223
 C          11.596       6.223      -0.295
 C          12.360       7.432      -0.274
 C          13.844       7.452      -0.204
 C          14.609       8.686      -0.264
 C          16.014       8.669      -0.250
 C           9.443       4.988      -0.084
 C          10.134       6.188      -0.170
 C          13.585      -7.635       0.790
 C          12.097      -7.625       0.722
 C          11.427      -8.885       0.827
 C           9.935      -8.857       0.626
 C          11.451      -1.321       0.532
 C           9.238     -10.117       0.508
 C          15.812      -8.900       0.642
 C          14.341      -8.882       0.609
 C          15.909      -1.327       0.938
 C          13.629     -10.176       0.720
 C          14.409      -1.314       0.904
 C          12.167     -10.132       0.818
 C          13.638      -2.584       1.037
 C          11.614       3.703       0.164
 C          11.411     -11.384       0.700
 C          12.144      -2.575       0.847
 C          10.126       3.697       0.063
 C           9.928     -11.363       0.599
 C          11.413      -3.826       0.766
 C           9.401       2.468       0.042
 C           9.206     -12.642       0.528
 C          20.332      -1.459       0.453
 C          17.926     -10.213       0.923
 C          18.883      -1.410       0.683
 C          16.472     -10.217       0.769
 C          18.143      -2.647       0.969
 C          15.973       3.674       0.135
 C          15.767     -11.478       0.641
 C          16.633      -2.610       1.101
 C          14.509       3.684       0.095
 C          14.308     -11.458       0.620
 C          13.792       2.430       0.269
 C          13.536     -12.698       0.599
 C          15.865      -3.866       1.112
 C          14.373      -3.854       1.070
 C          12.331       2.432       0.363
 C          12.082     -12.653       0.466
 C          13.601      -5.111       1.113
 C          11.560       1.200       0.459
 C          11.334     -13.936       0.377
 C          12.109      -5.102       0.925
 C          10.072       1.203       0.249
 C           9.872     -13.859       0.486
 C          21.009      -2.725       0.365
 C          18.663     -11.475       0.802
 C          20.299      -3.958       0.538
 C          18.105       2.359       0.465
 C          17.962     -12.720       0.540
 C          18.840      -3.918       0.920
 C          16.648       2.397       0.333
 C          16.508     -12.734       0.660
 C          18.110      -5.168       1.062
 C          15.934       1.104       0.289
 C          15.740     -13.983       0.639
 C          16.602      -5.141       1.192
 C          14.471       1.124       0.260
 C          14.271     -13.968       0.625
 C          15.844      -6.424       1.122
 C          13.681      -0.086       0.519
 C          13.544     -15.213       0.505
 C          14.335      -6.406       1.089
 C          12.205      -0.072       0.445
 C          12.071     -15.161       0.430
 C          20.973      -5.224       0.472
 C          18.840       1.113       0.590
 C          18.690     -14.024       0.441
 C          20.277      -6.462       0.646
 C          18.167      -0.136       0.569
 C          17.924     -15.238       0.493
 C          18.812      -6.452       0.856
 C          16.684      -0.132       0.574
 C          16.444     -15.248       0.544
 C          18.063      -7.710       0.818
 C          15.681     -16.483       0.511
 C          16.577      -7.667       0.829
 C          14.282     -16.467       0.501
 C          20.910      -7.763       0.620
 C          20.199      -8.985       0.820
 C          18.704      -8.988       0.963
 C          20.869     -10.257       0.694
 C          20.148     -11.490       0.739
 C          11.380      -6.356       0.699
 C          21.044       2.321       0.227
 C          20.841     -12.792       0.678
 C          20.336       1.072       0.421
 C          20.145     -13.987       0.598
 C          21.010      -0.182       0.329
 C           9.938      -6.330       0.412
 C           9.978      -3.822       0.310
 C          10.000      -1.331       0.239
 C           9.306      -2.585       0.097
 C           9.275      -5.069       0.196
 C           9.264      -7.615       0.375
 C           9.365      -0.035       0.118
