   142
 frame    188
 H          22.172       4.851      -0.067
 H          20.938       7.032      -0.099
 H          18.753       8.311      -0.074
 H          14.063       9.635      -0.055
 H          16.571       9.603      -0.037
 H           9.637       7.173      -0.196
 H           8.348       5.026      -0.217
 H          11.850       8.399      -0.126
 H           8.142     -10.125       0.251
 H           8.313       2.496      -0.186
 H           8.113     -12.652       0.384
 H           9.346     -14.828       0.525
 H          11.529     -16.106       0.629
 H          16.217     -17.428       0.736
 H          13.711     -17.396       0.717
 H          20.647     -14.970       0.637
 H          22.082      -2.727       0.249
 H          22.049      -5.248       0.355
 H          22.011      -7.770       0.426
 H          21.972     -10.296       0.489
 H          22.143       2.322       0.013
 H          21.936     -12.823       0.564
 H          18.431     -16.193       0.686
 H          22.114      -0.204       0.122
 H           8.238      -2.554      -0.062
 H           8.203      -5.077       0.031
 H           8.170      -7.600       0.134
 H           8.273      -0.032      -0.137
 C          18.903       3.603      -0.074
 C          20.368       3.587      -0.089
 C          21.064       4.882      -0.012
 C          16.753       4.852      -0.081
 C          18.208       4.845       0.113
 C          18.910       6.126       0.246
 C          20.351       6.079       0.070
 C          12.309       4.911       0.052
 C          13.769       4.883      -0.093
 C          14.534       6.124      -0.064
 C          16.016       6.110      -0.062
 C          16.758       7.366       0.158
 C          18.207       7.365       0.227
 C          11.627       6.212       0.160
 C          12.362       7.437       0.182
 C          13.813       7.402       0.134
 C          14.600       8.659       0.109
 C          16.007       8.639       0.127
 C           9.453       5.023      -0.144
 C          10.187       6.200      -0.028
 C          13.638      -7.660      -0.222
 C          12.167      -7.669      -0.379
 C          11.421      -8.911      -0.191
 C           9.933      -8.889      -0.069
 C          11.529      -1.362      -0.648
 C           9.238     -10.160       0.105
 C          15.823      -8.912       0.038
 C          14.338      -8.896       0.002
 C          15.902      -1.429      -0.379
 C          13.613     -10.150       0.140
 C          14.467      -1.410      -0.411
 C          12.149     -10.169       0.068
 C          13.724      -2.655      -0.571
 C          11.585       3.693      -0.159
 C          11.393     -11.415       0.347
 C          12.236      -2.627      -0.587
 C          10.121       3.717      -0.221
 C           9.917     -11.398       0.283
 C          11.460      -3.881      -0.551
 C           9.411       2.492      -0.324
 C           9.213     -12.673       0.449
 C          20.308      -1.486      -0.227
 C          17.975     -10.238       0.166
 C          18.843      -1.460      -0.508
 C          16.515     -10.188       0.184
 C          18.096      -2.703      -0.476
 C          15.978       3.608      -0.165
 C          15.777     -11.432       0.339
 C          16.622      -2.689      -0.485
 C          14.516       3.625      -0.190
 C          14.309     -11.411       0.327
 C          13.782       2.375      -0.281
 C          13.553     -12.657       0.473
 C          15.895      -3.935      -0.541
 C          14.424      -3.916      -0.573
 C          12.315       2.419      -0.363
 C          12.090     -12.641       0.631
 C          13.689      -5.163      -0.483
 C          11.559       1.175      -0.525
 C          11.357     -13.907       0.816
 C          12.204      -5.154      -0.498
 C          10.070       1.193      -0.420
 C           9.918     -13.861       0.622
 C          20.982      -2.733      -0.009
 C          18.688     -11.505       0.466
 C          20.260      -3.976      -0.091
 C          18.146       2.345      -0.266
 C          17.959     -12.722       0.706
 C          18.848      -3.972      -0.394
 C          16.681       2.338      -0.234
 C          16.498     -12.698       0.512
 C          18.060      -5.227      -0.372
 C          15.960       1.080      -0.312
 C          15.740     -13.942       0.585
 C          16.584      -5.197      -0.411
 C          14.466       1.100      -0.338
 C          14.277     -13.921       0.564
 C          15.835      -6.427      -0.207
 C          13.737      -0.137      -0.495
 C          13.524     -15.152       0.836
 C          14.401      -6.408      -0.239
 C          12.266      -0.100      -0.627
 C          12.068     -15.145       0.893
 C          20.942      -5.237       0.093
 C          18.869       1.080      -0.412
 C          18.646     -14.007       0.888
 C          20.236      -6.473      -0.033
 C          18.140      -0.177      -0.524
 C          17.908     -15.223       0.947
 C          18.773      -6.480      -0.324
 C          16.670      -0.176      -0.425
 C          16.452     -15.197       0.864
 C          18.035      -7.734      -0.250
 C          15.675     -16.455       0.879
 C          16.566      -7.695      -0.163
 C          14.273     -16.435       0.870
 C          20.895      -7.756       0.212
 C          20.218      -9.012       0.131
 C          18.737      -9.001      -0.049
 C          20.882     -10.303       0.300
 C          20.164     -11.525       0.445
 C          11.464      -6.390      -0.475
 C          21.049       2.344      -0.167
 C          20.827     -12.822       0.617
 C          20.361       1.063      -0.251
 C          20.089     -13.994       0.740
 C          21.002      -0.200      -0.072
 C           9.992      -6.359      -0.253
 C          10.032      -3.856      -0.319
 C          10.052      -1.349      -0.429
 C           9.349      -2.583      -0.268
 C           9.321      -5.093      -0.177
 C           9.294      -7.618      -0.028
 C           9.393      -0.055      -0.294
