   142
 frame    344
 H          22.172       4.851      -0.067
 H          20.938       7.032      -0.099
 H          18.753       8.311      -0.074
 H          14.063       9.635      -0.055
 H          16.571       9.603      -0.037
 H           9.637       7.173      -0.196
 H           8.348       5.026      -0.217
 H          11.850       8.399      -0.126
 H           8.142     -10.125       0.251
 H           8.313       2.496      -0.186
 H           8.113     -12.652       0.384
 H           9.346     -14.828       0.525
 H          11.529     -16.106       0.629
 H          16.217     -17.428       0.736
 H          13.711     -17.396       0.717
 H          20.647     -14.970       0.637
 H          22.082      -2.727       0.249
 H          22.049      -5.248       0.355
 H          22.011      -7.770       0.426
 H          21.972     -10.296       0.489
 H          22.143       2.322       0.013
 H          21.936     -12.823       0.564
 H          18.431     -16.193       0.686
 H          22.114      -0.204       0.122
 H           8.238      -2.554      -0.062
 H           8.203      -5.077       0.031
 H           8.170      -7.600       0.134
 H           8.273      -0.032      -0.137
 C          18.890       3.624      -0.273
 C          20.360       3.595      -0.074
 C          21.060       4.861      -0.129
 C          16.743       4.923      -0.679
 C          18.205       4.896      -0.382
 C          18.943       6.167      -0.286
 C          20.386       6.076      -0.168
 C          12.315       4.979      -0.461
 C          13.783       4.963      -0.707
 C          14.544       6.234      -0.792
 C          16.024       6.218      -0.782
 C          16.799       7.456      -0.538
 C          18.219       7.397      -0.352
 C          11.613       6.263      -0.351
 C          12.369       7.474      -0.419
 C          13.797       7.492      -0.561
 C          14.605       8.670      -0.269
 C          16.014       8.652      -0.245
 C           9.453       5.006      -0.236
 C          10.158       6.199      -0.258
 C          13.629      -7.668      -0.245
 C          12.153      -7.652      -0.120
 C          11.412      -8.924      -0.141
 C           9.953      -8.889       0.040
 C          11.508      -1.355      -0.424
 C           9.258     -10.136       0.261
 C          15.822      -8.965      -0.227
 C          14.345      -8.947      -0.259
 C          15.907      -1.429      -0.405
 C          13.609     -10.224      -0.225
 C          14.457      -1.414      -0.436
 C          12.136     -10.197      -0.136
 C          13.718      -2.641      -0.371
 C          11.601       3.718      -0.369
 C          11.399     -11.448       0.096
 C          12.245      -2.624      -0.447
 C          10.134       3.721      -0.202
 C           9.935     -11.397       0.270
 C          11.516      -3.873      -0.511
 C           9.428       2.475      -0.173
 C           9.224     -12.664       0.314
 C          20.336      -1.424      -0.144
 C          17.993     -10.270      -0.023
 C          18.858      -1.448      -0.269
 C          16.520     -10.255      -0.175
 C          18.077      -2.695      -0.328
 C          15.991       3.664      -0.696
 C          15.785     -11.521      -0.230
 C          16.608      -2.677      -0.297
 C          14.507       3.683      -0.712
 C          14.307     -11.500      -0.257
 C          13.779       2.427      -0.620
 C          13.550     -12.761      -0.166
 C          15.883      -3.926      -0.076
 C          14.406      -3.907      -0.115
 C          12.310       2.439      -0.530
 C          12.086     -12.722       0.088
 C          13.680      -5.162      -0.304
 C          11.556       1.181      -0.464
 C          11.340     -13.976       0.271
 C          12.215      -5.141      -0.372
 C          10.092       1.201      -0.298
 C           9.894     -13.879       0.385
 C          20.976      -2.716       0.016
 C          18.691     -11.540       0.220
 C          20.273      -3.980      -0.071
 C          18.156       2.364      -0.434
 C          17.970     -12.795       0.168
 C          18.785      -3.965      -0.345
 C          16.683       2.386      -0.552
 C          16.514     -12.797      -0.128
 C          18.049      -5.212      -0.234
 C          15.955       1.097      -0.543
 C          15.754     -14.074      -0.190
 C          16.579      -5.197      -0.211
 C          14.478       1.115      -0.581
 C          14.275     -14.054      -0.212
 C          15.843      -6.434      -0.233
 C          13.738      -0.142      -0.492
 C          13.501     -15.281       0.111
 C          14.387      -6.417      -0.267
 C          12.257      -0.108      -0.350
 C          12.066     -15.205       0.278
 C          20.955      -5.251       0.110
 C          18.878       1.092      -0.335
 C          18.684     -14.067       0.349
 C          20.270      -6.521       0.036
 C          18.136      -0.177      -0.250
 C          17.926     -15.281       0.327
 C          18.794      -6.470      -0.096
 C          16.663      -0.183      -0.421
 C          16.494     -15.319       0.148
 C          18.044      -7.729       0.004
 C          15.685     -16.487       0.476
 C          16.569      -7.692      -0.174
 C          14.278     -16.464       0.470
 C          20.930      -7.799       0.210
 C          20.209      -9.014       0.247
 C          18.747      -9.010       0.000
 C          20.855     -10.292       0.458
 C          20.152     -11.532       0.433
 C          11.437      -6.383      -0.266
 C          21.025       2.337       0.008
 C          20.820     -12.807       0.470
 C          20.334       1.074      -0.132
 C          20.128     -14.008       0.494
 C          21.029      -0.158      -0.084
 C           9.957      -6.400      -0.193
 C          10.031      -3.850      -0.299
 C          10.034      -1.293      -0.361
 C           9.345      -2.569      -0.249
 C           9.308      -5.108      -0.165
 C           9.254      -7.660      -0.045
 C           9.362      -0.010      -0.317
