   142
 frame    566
 H          22.172       4.851      -0.067
 H          20.938       7.032      -0.099
 H          18.753       8.311      -0.074
 H          14.063       9.635      -0.055
 H          16.571       9.603      -0.037
 H           9.637       7.173      -0.196
 H           8.348       5.026      -0.217
 H          11.850       8.399      -0.126
 H           8.142     -10.125       0.251
 H           8.313       2.496      -0.186
 H           8.113     -12.652       0.384
 H           9.346     -14.828       0.525
 H          11.529     -16.106       0.629
 H          16.217     -17.428       0.736
 H          13.711     -17.396       0.717
 H          20.647     -14.970       0.637
 H          22.082      -2.727       0.249
 H          22.049      -5.248       0.355
 H          22.011      -7.770       0.426
 H          21.972     -10.296       0.489
 H          22.143       2.322       0.013
 H          21.936     -12.823       0.564
 H          18.431     -16.193       0.686
 H          22.114      -0.204       0.122
 H           8.238      -2.554      -0.062
 H           8.203      -5.077       0.031
 H           8.170      -7.600       0.134
 H           8.273      -0.032      -0.137
 C          18.866       3.643      -0.061
 C          20.353       3.597       0.038
 C          21.076       4.886      -0.003
 C          16.707       4.918      -0.227
 C          18.164       4.921      -0.039
 C          18.938       6.168       0.107
 C          20.412       6.095       0.072
 C          12.344       5.005      -0.102
 C          13.813       4.958      -0.260
 C          14.545       6.212      -0.337
 C          16.017       6.196      -0.335
 C          16.791       7.417      -0.120
 C          18.215       7.374       0.059
 C          11.613       6.257       0.033
 C          12.364       7.450      -0.007
 C          13.789       7.454      -0.160
 C          14.597       8.656      -0.122
 C          16.012       8.637      -0.104
 C           9.444       5.034      -0.114
 C          10.132       6.219      -0.020
 C          13.632      -7.620       0.346
 C          12.164      -7.619       0.273
 C          11.422      -8.878       0.249
 C           9.953      -8.884       0.190
 C          11.527      -1.321      -0.199
 C           9.254     -10.154       0.323
 C          15.815      -8.928       0.541
 C          14.331      -8.915       0.505
 C          15.913      -1.392      -0.142
 C          13.582     -10.165       0.401
 C          14.456      -1.368      -0.191
 C          12.131     -10.163       0.235
 C          13.719      -2.647      -0.231
 C          11.621       3.734      -0.159
 C          11.408     -11.438       0.333
 C          12.254      -2.592      -0.361
 C          10.133       3.729      -0.110
 C           9.927     -11.401       0.393
 C          11.490      -3.862      -0.233
 C           9.423       2.500      -0.105
 C           9.206     -12.684       0.462
 C          20.318      -1.443      -0.096
 C          17.991     -10.234       0.325
 C          18.829      -1.416      -0.076
 C          16.544     -10.202       0.442
 C          18.085      -2.665      -0.249
 C          15.976       3.606      -0.153
 C          15.776     -11.428       0.350
 C          16.622      -2.680      -0.166
 C          14.513       3.635      -0.168
 C          14.312     -11.417       0.339
 C          13.751       2.409      -0.011
 C          13.585     -12.725       0.325
 C          15.883      -3.919       0.023
 C          14.414      -3.906      -0.014
 C          12.313       2.438      -0.172
 C          12.113     -12.728       0.476
 C          13.678      -5.138      -0.155
 C          11.562       1.180      -0.063
 C          11.339     -13.957       0.686
 C          12.216      -5.161      -0.267
 C          10.088       1.206      -0.156
 C           9.860     -13.883       0.641
 C          20.964      -2.699       0.176
 C          18.669     -11.533       0.443
 C          20.255      -3.973       0.144
 C          18.147       2.359      -0.087
 C          17.936     -12.799       0.548
 C          18.810      -3.954      -0.099
 C          16.706       2.371       0.029
 C          16.470     -12.760       0.354
 C          18.052      -5.228      -0.140
 C          15.954       1.133       0.202
 C          15.744     -14.023       0.314
 C          16.589      -5.174      -0.100
 C          14.459       1.153       0.178
 C          14.277     -14.001       0.306
 C          15.849      -6.444       0.015
 C          13.739      -0.140       0.095
 C          13.494     -15.205       0.553
 C          14.374      -6.427      -0.011
 C          12.261      -0.104       0.024
 C          12.065     -15.168       0.699
 C          20.929      -5.250       0.256
 C          18.859       1.089       0.030
 C          18.672     -14.050       0.775
 C          20.244      -6.509       0.097
 C          18.120      -0.181       0.106
 C          17.919     -15.238       0.757
 C          18.765      -6.485       0.122
 C          16.642      -0.169       0.133
 C          16.492     -15.248       0.581
 C          18.025      -7.695       0.368
 C          15.686     -16.453       0.640
 C          16.549      -7.660       0.399
 C          14.271     -16.428       0.630
 C          20.918      -7.774       0.267
 C          20.196      -9.006       0.374
 C          18.735      -8.971       0.366
 C          20.863     -10.296       0.529
 C          20.154     -11.526       0.558
 C          11.464      -6.392      -0.006
 C          21.033       2.349       0.072
 C          20.840     -12.820       0.619
 C          20.331       1.076       0.018
 C          20.158     -14.008       0.753
 C          21.019      -0.178      -0.006
 C           9.983      -6.377      -0.127
 C          10.035      -3.839      -0.066
 C          10.047      -1.310      -0.296
 C           9.353      -2.555      -0.081
 C           9.326      -5.103       0.011
 C           9.271      -7.629       0.033
 C           9.372      -0.033      -0.219
