   142
 frame    601
 H          22.172       4.851      -0.067
 H          20.938       7.032      -0.099
 H          18.753       8.311      -0.074
 H          14.063       9.635      -0.055
 H          16.571       9.603      -0.037
 H           9.637       7.173      -0.196
 H           8.348       5.026      -0.217
 H          11.850       8.399      -0.126
 H           8.142     -10.125       0.251
 H           8.313       2.496      -0.186
 H           8.113     -12.652       0.384
 H           9.346     -14.828       0.525
 H          11.529     -16.106       0.629
 H          16.217     -17.428       0.736
 H          13.711     -17.396       0.717
 H          20.647     -14.970       0.637
 H          22.082      -2.727       0.249
 H          22.049      -5.248       0.355
 H          22.011      -7.770       0.426
 H          21.972     -10.296       0.489
 H          22.143       2.322       0.013
 H          21.936     -12.823       0.564
 H          18.431     -16.193       0.686
 H          22.114      -0.204       0.122
 H           8.238      -2.554      -0.062
 H           8.203      -5.077       0.031
 H           8.170      -7.600       0.134
 H           8.273      -0.032      -0.137
 C          18.864       3.572       0.082
 C          20.347       3.556      -0.024
 C          21.062       4.864      -0.006
 C          16.702       4.868       0.126
 C          18.151       4.840      -0.033
 C          18.897       6.117      -0.172
 C          20.377       6.065      -0.127
 C          12.363       4.904      -0.101
 C          13.803       4.899       0.077
 C          14.545       6.166       0.078
 C          16.001       6.150       0.105
 C          16.750       7.399      -0.080
 C          18.197       7.361      -0.216
 C          11.650       6.213      -0.234
 C          12.388       7.434      -0.260
 C          13.833       7.429      -0.106
 C          14.608       8.675      -0.133
 C          15.997       8.660      -0.124
 C           9.460       5.011      -0.139
 C          10.181       6.193      -0.228
 C          13.638      -7.648       0.358
 C          12.186      -7.638       0.191
 C          11.442      -8.868       0.316
 C           9.962      -8.856       0.156
 C          11.532      -1.348      -0.086
 C           9.239     -10.128       0.208
 C          15.801      -8.926       0.580
 C          14.335      -8.902       0.553
 C          15.906      -1.436       0.124
 C          13.575     -10.139       0.625
 C          14.443      -1.412       0.100
 C          12.136     -10.090       0.557
 C          13.719      -2.622      -0.237
 C          11.618       3.663       0.003
 C          11.426     -11.363       0.496
 C          12.240      -2.612      -0.155
 C          10.142       3.684      -0.138
 C           9.937     -11.359       0.353
 C          11.512      -3.875      -0.218
 C           9.409       2.467      -0.211
 C           9.219     -12.658       0.469
 C          20.304      -1.438       0.054
 C          17.974     -10.164       0.652
 C          18.828      -1.440       0.054
 C          16.529     -10.174       0.661
 C          18.082      -2.689      -0.041
 C          15.974       3.621       0.188
 C          15.777     -11.426       0.679
 C          16.612      -2.657      -0.200
 C          14.504       3.638       0.168
 C          14.308     -11.410       0.648
 C          13.742       2.392       0.199
 C          13.579     -12.652       0.643
 C          15.891      -3.928      -0.501
 C          14.416      -3.906      -0.533
 C          12.293       2.388       0.135
 C          12.137     -12.623       0.465
 C          13.683      -5.164      -0.136
 C          11.570       1.172      -0.019
 C          11.385     -13.916       0.402
 C          12.203      -5.137      -0.073
 C          10.093       1.181      -0.186
 C           9.913     -13.862       0.422
 C          20.992      -2.712       0.017
 C          18.658     -11.455       0.600
 C          20.288      -3.972      -0.069
 C          18.149       2.315       0.223
 C          17.917     -12.700       0.540
 C          18.783      -3.960      -0.072
 C          16.704       2.356       0.239
 C          16.469     -12.689       0.693
 C          18.054      -5.211       0.048
 C          15.933       1.118       0.221
 C          15.733     -13.944       0.742
 C          16.575      -5.196      -0.079
 C          14.477       1.135       0.196
 C          14.283     -13.928       0.732
 C          15.832      -6.389       0.308
 C          13.740      -0.112       0.092
 C          13.541     -15.175       0.611
 C          14.380      -6.369       0.278
 C          12.290      -0.087      -0.076
 C          12.096     -15.153       0.466
 C          20.961      -5.241       0.136
 C          18.839       1.073       0.096
 C          18.639     -14.004       0.491
 C          20.232      -6.482       0.260
 C          18.097      -0.162       0.037
 C          17.896     -15.227       0.518
 C          18.761      -6.462       0.217
 C          16.648      -0.151       0.136
 C          16.445     -15.223       0.647
 C          18.002      -7.703       0.311
 C          15.674     -16.463       0.641
 C          16.549      -7.686       0.406
 C          14.284     -16.440       0.634
 C          20.905      -7.758       0.393
 C          20.189      -8.987       0.336
 C          18.703      -8.959       0.450
 C          20.871     -10.273       0.399
 C          20.147     -11.485       0.505
 C          11.463      -6.372       0.083
 C          21.046       2.320      -0.060
 C          20.827     -12.804       0.623
 C          20.324       1.055      -0.021
 C          20.103     -13.986       0.559
 C          21.016      -0.183       0.102
 C           9.988      -6.359       0.049
 C          10.002      -3.843      -0.286
 C          10.055      -1.313      -0.130
 C           9.338      -2.564      -0.217
 C           9.297      -5.096      -0.120
 C           9.274      -7.614       0.164
 C           9.373      -0.045      -0.097
