   142
 frame    287
 H          22.172       4.851      -0.067
 H          20.938       7.032      -0.099
 H          18.753       8.311      -0.074
 H          14.063       9.635      -0.055
 H          16.571       9.603      -0.037
 H           9.637       7.173      -0.196
 H           8.348       5.026      -0.217
 H          11.850       8.399      -0.126
 H           8.142     -10.125       0.251
 H           8.313       2.496      -0.186
 H           8.113     -12.652       0.384
 H           9.346     -14.828       0.525
 H          11.529     -16.106       0.629
 H          16.217     -17.428       0.736
 H          13.711     -17.396       0.717
 H          20.647     -14.970       0.637
 H          22.082      -2.727       0.249
 H          22.049      -5.248       0.355
 H          22.011      -7.770       0.426
 H          21.972     -10.296       0.489
 H          22.143       2.322       0.013
 H          21.936     -12.823       0.564
 H          18.431     -16.193       0.686
 H          22.114      -0.204       0.122
 H           8.238      -2.554      -0.062
 H           8.203      -5.077       0.031
 H           8.170      -7.600       0.134
 H           8.273      -0.032      -0.137
 C          18.901       3.588      -0.272
 C          20.359       3.574      -0.195
 C          21.101       4.860      -0.274
 C          16.757       4.884      -0.460
 C          18.208       4.855      -0.178
 C          18.943       6.113      -0.088
 C          20.422       6.062      -0.210
 C          12.314       4.924      -0.237
 C          13.775       4.924      -0.490
 C          14.534       6.188      -0.444
 C          16.031       6.167      -0.433
 C          16.768       7.403      -0.215
 C          18.212       7.342      -0.121
 C          11.605       6.204      -0.180
 C          12.369       7.413      -0.163
 C          13.820       7.442      -0.227
 C          14.609       8.671      -0.095
 C          16.002       8.648      -0.085
 C           9.422       5.004      -0.408
 C          10.125       6.189      -0.307
 C          13.636      -7.632      -0.314
 C          12.155      -7.601      -0.241
 C          11.424      -8.866      -0.166
 C           9.966      -8.871       0.040
 C          11.523      -1.388      -0.313
 C           9.265     -10.140       0.192
 C          15.818      -8.900      -0.068
 C          14.346      -8.879      -0.103
 C          15.923      -1.419      -0.699
 C          13.622     -10.168      -0.118
 C          14.462      -1.404      -0.733
 C          12.142     -10.158      -0.130
 C          13.679      -2.634      -0.693
 C          11.594       3.677      -0.365
 C          11.393     -11.417       0.121
 C          12.221      -2.632      -0.510
 C          10.125       3.695      -0.332
 C           9.924     -11.392       0.171
 C          11.506      -3.872      -0.309
 C           9.432       2.469      -0.234
 C           9.189     -12.671       0.202
 C          20.300      -1.473       0.032
 C          17.993     -10.232      -0.023
 C          18.833      -1.477      -0.156
 C          16.515     -10.205      -0.050
 C          18.120      -2.702      -0.367
 C          15.975       3.638      -0.587
 C          15.780     -11.489      -0.114
 C          16.674      -2.671      -0.639
 C          14.524       3.659      -0.597
 C          14.319     -11.476      -0.134
 C          13.796       2.373      -0.504
 C          13.548     -12.717       0.050
 C          15.916      -3.930      -0.629
 C          14.398      -3.914      -0.665
 C          12.317       2.396      -0.533
 C          12.087     -12.676       0.316
 C          13.645      -5.169      -0.618
 C          11.555       1.138      -0.488
 C          11.337     -13.926       0.467
 C          12.193      -5.125      -0.420
 C          10.099       1.177      -0.286
 C           9.866     -13.867       0.356
 C          20.983      -2.733       0.170
 C          18.699     -11.507       0.242
 C          20.260      -3.976       0.047
 C          18.149       2.327      -0.449
 C          17.970     -12.752       0.396
 C          18.785      -3.957      -0.141
 C          16.674       2.338      -0.462
 C          16.518     -12.754       0.076
 C          18.078      -5.194      -0.270
 C          15.951       1.059      -0.390
 C          15.764     -14.014       0.174
 C          16.632      -5.208      -0.559
 C          14.480       1.079      -0.423
 C          14.271     -13.996       0.162
 C          15.857      -6.442      -0.531
 C          13.733      -0.166      -0.560
 C          13.515     -15.204       0.432
 C          14.396      -6.425      -0.567
 C          12.253      -0.148      -0.487
 C          12.065     -15.147       0.514
 C          20.945      -5.223       0.277
 C          18.877       1.042      -0.365
 C          18.682     -14.026       0.551
 C          20.235      -6.470       0.221
 C          18.153      -0.224      -0.360
 C          17.922     -15.222       0.587
 C          18.760      -6.426       0.021
 C          16.670      -0.194      -0.505
 C          16.483     -15.243       0.462
 C          18.047      -7.676      -0.115
 C          15.676     -16.460       0.642
 C          16.572      -7.674      -0.247
 C          14.279     -16.439       0.637
 C          20.903      -7.746       0.420
 C          20.188      -8.996       0.244
 C          18.738      -8.957      -0.016
 C          20.852     -10.291       0.402
 C          20.158     -11.521       0.329
 C          11.466      -6.340      -0.152
 C          21.024       2.331      -0.050
 C          20.866     -12.822       0.348
 C          20.331       1.050      -0.112
 C          20.152     -13.996       0.476
 C          21.008      -0.210       0.128
 C           9.988      -6.344      -0.013
 C          10.028      -3.846      -0.192
 C          10.051      -1.348      -0.183
 C           9.338      -2.588      -0.080
 C           9.302      -5.079       0.008
 C           9.277      -7.601       0.161
 C           9.382      -0.067      -0.086
