   142
 frame     47
 H          22.172       4.851      -0.067
 H          20.938       7.032      -0.099
 H          18.753       8.311      -0.074
 H          14.063       9.635      -0.055
 H          16.571       9.603      -0.037
 H           9.637       7.173      -0.196
 H           8.348       5.026      -0.217
 H          11.850       8.399      -0.126
 H           8.142     -10.125       0.251
 H           8.313       2.496      -0.186
 H           8.113     -12.652       0.384
 H           9.346     -14.828       0.525
 H          11.529     -16.106       0.629
 H          16.217     -17.428       0.736
 H          13.711     -17.396       0.717
 H          20.647     -14.970       0.637
 H          22.082      -2.727       0.249
 H          22.049      -5.248       0.355
 H          22.011      -7.770       0.426
 H          21.972     -10.296       0.489
 H          22.143       2.322       0.013
 H          21.936     -12.823       0.564
 H          18.431     -16.193       0.686
 H          22.114      -0.204       0.122
 H           8.238      -2.554      -0.062
 H           8.203      -5.077       0.031
 H           8.170      -7.600       0.134
 H           8.273      -0.032      -0.137
 C          18.875       3.584      -0.025
 C          20.346       3.563      -0.021
 C          21.060       4.861      -0.060
 C          16.713       4.868      -0.058
 C          18.166       4.843      -0.050
 C          18.905       6.118      -0.070
 C          20.382       6.069      -0.078
 C          12.350       4.918      -0.114
 C          13.803       4.905      -0.092
 C          14.546       6.153      -0.082
 C          16.002       6.133      -0.068
 C          16.748       7.389      -0.066
 C          18.191       7.352      -0.072
 C          11.644       6.209      -0.139
 C          12.387       7.425      -0.120
 C          13.830       7.426      -0.090
 C          14.607       8.667      -0.068
 C          16.002       8.650      -0.057
 C           9.459       5.006      -0.187
 C          10.168       6.196      -0.177
 C          13.629      -7.605       0.469
 C          12.171      -7.614       0.335
 C          11.431      -8.879       0.244
 C           9.961      -8.870       0.219
 C          11.528      -1.340       0.093
 C           9.252     -10.129       0.288
 C          15.805      -8.906       0.470
 C          14.344      -8.888       0.441
 C          15.905      -1.442      -0.008
 C          13.607     -10.149       0.352
 C          14.436      -1.421      -0.064
 C          12.146     -10.139       0.330
 C          13.711      -2.681      -0.319
 C          11.608       3.676      -0.120
 C          11.408     -11.385       0.406
 C          12.250      -2.628      -0.004
 C          10.139       3.690      -0.152
 C           9.937     -11.366       0.370
 C          11.497      -3.843       0.142
 C           9.418       2.473      -0.156
 C           9.223     -12.663       0.410
 C          20.294      -1.453       0.203
 C          17.973     -10.209       0.432
 C          18.814      -1.434       0.228
 C          16.512     -10.182       0.404
 C          18.055      -2.696       0.143
 C          15.971       3.623      -0.078
 C          15.771     -11.431       0.453
 C          16.630      -2.702      -0.255
 C          14.515       3.644      -0.099
 C          14.315     -11.413       0.431
 C          13.768       2.402      -0.101
 C          13.571     -12.663       0.503
 C          15.874      -3.944      -0.596
 C          14.435      -3.920      -0.643
 C          12.308       2.421      -0.122
 C          12.116     -12.647       0.480
 C          13.673      -5.108      -0.224
 C          11.554       1.182      -0.125
 C          11.377     -13.919       0.520
 C          12.206      -5.095       0.092
 C          10.086       1.196      -0.146
 C           9.901     -13.868       0.486
 C          20.982      -2.718       0.228
 C          18.676     -11.477       0.516
 C          20.257      -3.958       0.374
 C          18.146       2.342      -0.034
 C          17.934     -12.721       0.556
 C          18.771      -3.940       0.291
 C          16.688       2.365      -0.064
 C          16.479     -12.701       0.540
 C          18.049      -5.172       0.205
 C          15.942       1.104       0.072
 C          15.737     -13.950       0.586
 C          16.594      -5.147      -0.158
 C          14.472       1.125       0.060
 C          14.280     -13.931       0.569
 C          15.847      -6.389       0.152
 C          13.734      -0.140       0.167
 C          13.533     -15.187       0.613
 C          14.364      -6.362       0.127
 C          12.261      -0.097       0.048
 C          12.092     -15.150       0.590
 C          20.942      -5.235       0.334
 C          18.863       1.084      -0.009
 C          18.641     -14.011       0.601
 C          20.216      -6.472       0.425
 C          18.114      -0.175       0.135
 C          17.894     -15.223       0.644
 C          18.742      -6.448       0.434
 C          16.637      -0.180       0.227
 C          16.453     -15.224       0.640
 C          18.004      -7.682       0.456
 C          15.673     -16.462       0.689
 C          16.539      -7.637       0.522
 C          14.279     -16.445       0.677
 C          20.895      -7.747       0.402
 C          20.186      -8.992       0.416
 C          18.714      -8.963       0.386
 C          20.863     -10.275       0.489
 C          20.147     -11.496       0.526
 C          11.462      -6.356       0.281
 C          21.035       2.326       0.016
 C          20.827     -12.809       0.563
 C          20.331       1.062       0.029
 C          20.117     -13.997       0.601
 C          21.006      -0.197       0.096
 C           9.988      -6.350       0.197
 C          10.008      -3.831       0.160
 C          10.048      -1.321       0.010
 C           9.331      -2.569      -0.027
 C           9.302      -5.092       0.067
 C           9.284      -7.608       0.157
 C           9.380      -0.047      -0.121
