   142
 frame    833
 H          22.172       4.851      -0.067
 H          20.938       7.032      -0.099
 H          18.753       8.311      -0.074
 H          14.063       9.635      -0.055
 H          16.571       9.603      -0.037
 H           9.637       7.173      -0.196
 H           8.348       5.026      -0.217
 H          11.850       8.399      -0.126
 H           8.142     -10.125       0.251
 H           8.313       2.496      -0.186
 H           8.113     -12.652       0.384
 H           9.346     -14.828       0.525
 H          11.529     -16.106       0.629
 H          16.217     -17.428       0.736
 H          13.711     -17.396       0.717
 H          20.647     -14.970       0.637
 H          22.082      -2.727       0.249
 H          22.049      -5.248       0.355
 H          22.011      -7.770       0.426
 H          21.972     -10.296       0.489
 H          22.143       2.322       0.013
 H          21.936     -12.823       0.564
 H          18.431     -16.193       0.686
 H          22.114      -0.204       0.122
 H           8.238      -2.554      -0.062
 H           8.203      -5.077       0.031
 H           8.170      -7.600       0.134
 H           8.273      -0.032      -0.137
 C          18.825       3.563       0.047
 C          20.310       3.530      -0.046
 C          21.042       4.823      -0.001
 C          16.690       4.885       0.029
 C          18.149       4.859       0.071
 C          18.908       6.130       0.079
 C          20.388       6.054       0.058
 C          12.357       4.945      -0.004
 C          13.822       4.922      -0.009
 C          14.553       6.156      -0.052
 C          15.991       6.138      -0.035
 C          16.767       7.386      -0.010
 C          18.206       7.365       0.019
 C          11.634       6.224       0.004
 C          12.376       7.435      -0.031
 C          13.813       7.423      -0.023
 C          14.607       8.675      -0.116
 C          16.010       8.655      -0.103
 C           9.470       4.966      -0.135
 C          10.158       6.180      -0.045
 C          13.604      -7.648       1.047
 C          12.153      -7.629       0.806
 C          11.429      -8.870       0.674
 C           9.963      -8.856       0.418
 C          11.497      -1.322       0.370
 C           9.267     -10.123       0.237
 C          15.796      -8.908       1.304
 C          14.317      -8.893       1.276
 C          15.905      -1.366       0.772
 C          13.627     -10.133       0.976
 C          14.428      -1.341       0.743
 C          12.173     -10.120       0.734
 C          13.684      -2.596       0.554
 C          11.650       3.652      -0.039
 C          11.446     -11.360       0.451
 C          12.210      -2.592       0.448
 C          10.172       3.653      -0.190
 C           9.976     -11.334       0.314
 C          11.485      -3.848       0.382
 C           9.445       2.460      -0.182
 C           9.247     -12.620       0.459
 C          20.328      -1.422       0.436
 C          17.923     -10.196       0.836
 C          18.846      -1.413       0.547
 C          16.465     -10.171       1.018
 C          18.096      -2.663       0.578
 C          15.957       3.633       0.210
 C          15.757     -11.446       0.748
 C          16.625      -2.632       0.611
 C          14.516       3.650       0.184
 C          14.312     -11.431       0.728
 C          13.799       2.395       0.514
 C          13.571     -12.680       0.598
 C          15.880      -3.905       0.682
 C          14.381      -3.890       0.656
 C          12.350       2.409       0.290
 C          12.113     -12.655       0.589
 C          13.643      -5.164       0.645
 C          11.576       1.177       0.306
 C          11.368     -13.915       0.679
 C          12.172      -5.125       0.543
 C          10.113       1.184       0.054
 C           9.896     -13.845       0.622
 C          20.989      -2.691       0.473
 C          18.631     -11.448       0.565
 C          20.272      -3.949       0.580
 C          18.096       2.343       0.384
 C          17.924     -12.721       0.675
 C          18.795      -3.940       0.545
 C          16.634       2.364       0.562
 C          16.465     -12.709       0.629
 C          18.058      -5.193       0.686
 C          15.931       1.137       0.934
 C          15.728     -13.942       0.640
 C          16.596      -5.194       0.712
 C          14.444       1.154       0.913
 C          14.286     -13.929       0.616
 C          15.832      -6.416       0.958
 C          13.707      -0.079       0.771
 C          13.515     -15.184       0.682
 C          14.361      -6.404       0.921
 C          12.264      -0.085       0.529
 C          12.078     -15.153       0.693
 C          20.954      -5.234       0.577
 C          18.838       1.092       0.449
 C          18.643     -14.008       0.759
 C          20.253      -6.486       0.643
 C          18.111      -0.151       0.655
 C          17.903     -15.224       0.749
 C          18.782      -6.455       0.740
 C          16.653      -0.108       0.828
 C          16.473     -15.221       0.697
 C          18.011      -7.692       0.934
 C          15.681     -16.466       0.631
 C          16.553      -7.682       1.116
 C          14.274     -16.446       0.627
 C          20.924      -7.758       0.558
 C          20.175      -8.981       0.623
 C          18.699      -8.963       0.828
 C          20.847     -10.269       0.441
 C          20.114     -11.459       0.472
 C          11.412      -6.371       0.580
 C          21.011       2.316       0.004
 C          20.808     -12.754       0.637
 C          20.302       1.062       0.226
 C          20.126     -13.969       0.750
 C          21.024      -0.176       0.263
 C           9.947      -6.356       0.411
 C          10.000      -3.826       0.348
 C          10.025      -1.298       0.230
 C           9.325      -2.544       0.204
 C           9.289      -5.094       0.320
 C           9.257      -7.613       0.323
 C           9.363      -0.032       0.052
