   142
 frame    864
 H          22.172       4.851      -0.067
 H          20.938       7.032      -0.099
 H          18.753       8.311      -0.074
 H          14.063       9.635      -0.055
 H          16.571       9.603      -0.037
 H           9.637       7.173      -0.196
 H           8.348       5.026      -0.217
 H          11.850       8.399      -0.126
 H           8.142     -10.125       0.251
 H           8.313       2.496      -0.186
 H           8.113     -12.652       0.384
 H           9.346     -14.828       0.525
 H          11.529     -16.106       0.629
 H          16.217     -17.428       0.736
 H          13.711     -17.396       0.717
 H          20.647     -14.970       0.637
 H          22.082      -2.727       0.249
 H          22.049      -5.248       0.355
 H          22.011      -7.770       0.426
 H          21.972     -10.296       0.489
 H          22.143       2.322       0.013
 H          21.936     -12.823       0.564
 H          18.431     -16.193       0.686
 H          22.114      -0.204       0.122
 H           8.238      -2.554      -0.062
 H           8.203      -5.077       0.031
 H           8.170      -7.600       0.134
 H           8.273      -0.032      -0.137
 C          18.925       3.614       0.220
 C          20.398       3.607       0.135
 C          21.086       4.879      -0.075
 C          16.698       4.837       0.020
 C          18.152       4.844       0.103
 C          18.899       6.112      -0.057
 C          20.373       6.060      -0.139
 C          12.364       4.908       0.026
 C          13.810       4.869      -0.023
 C          14.551       6.135      -0.245
 C          15.989       6.108      -0.237
 C          16.716       7.379      -0.166
 C          18.182       7.345      -0.099
 C          11.652       6.201      -0.121
 C          12.389       7.414      -0.148
 C          13.859       7.414      -0.201
 C          14.600       8.648      -0.042
 C          15.998       8.633      -0.035
 C           9.436       5.030      -0.188
 C          10.177       6.187      -0.239
 C          13.640      -7.631       0.975
 C          12.172      -7.616       0.859
 C          11.414      -8.840       0.659
 C           9.902      -8.850       0.502
 C          11.525      -1.313       0.573
 C           9.214     -10.140       0.461
 C          15.804      -8.922       0.947
 C          14.321      -8.902       0.923
 C          15.887      -1.386       0.844
 C          13.540     -10.145       0.770
 C          14.431      -1.368       0.808
 C          12.070     -10.128       0.697
 C          13.680      -2.622       0.811
 C          11.555       3.708       0.093
 C          11.351     -11.412       0.643
 C          12.211      -2.597       0.650
 C          10.081       3.735      -0.008
 C           9.889     -11.403       0.529
 C          11.491      -3.843       0.566
 C           9.372       2.490       0.008
 C           9.205     -12.676       0.398
 C          20.257      -1.443       0.485
 C          18.027     -10.200       0.801
 C          18.802      -1.406       0.713
 C          16.556     -10.179       0.836
 C          18.083      -2.678       0.788
 C          15.976       3.597       0.280
 C          15.777     -11.394       0.811
 C          16.603      -2.659       0.893
 C          14.493       3.610       0.266
 C          14.302     -11.370       0.779
 C          13.718       2.392       0.331
 C          13.583     -12.636       0.578
 C          15.852      -3.894       0.909
 C          14.411      -3.870       0.878
 C          12.245       2.407       0.241
 C          12.131     -12.637       0.633
 C          13.649      -5.101       0.912
 C          11.544       1.143       0.296
 C          11.385     -13.904       0.513
 C          12.188      -5.101       0.752
 C          10.041       1.188       0.148
 C           9.916     -13.862       0.412
 C          20.956      -2.715       0.363
 C          18.716     -11.505       0.759
 C          20.226      -3.962       0.498
 C          18.192       2.339       0.352
 C          17.911     -12.710       0.710
 C          18.765      -3.939       0.736
 C          16.723       2.367       0.393
 C          16.467     -12.670       0.609
 C          18.039      -5.170       0.869
 C          15.931       1.141       0.604
 C          15.731     -13.935       0.434
 C          16.572      -5.147       0.968
 C          14.461       1.158       0.562
 C          14.287     -13.920       0.415
 C          15.823      -6.396       1.011
 C          13.734      -0.081       0.692
 C          13.558     -15.178       0.516
 C          14.366      -6.369       0.989
 C          12.271      -0.070       0.586
 C          12.095     -15.134       0.553
 C          20.920      -5.231       0.463
 C          18.857       1.058       0.425
 C          18.632     -13.996       0.605
 C          20.193      -6.468       0.676
 C          18.089      -0.136       0.696
 C          17.891     -15.218       0.609
 C          18.726      -6.444       0.911
 C          16.620      -0.121       0.774
 C          16.421     -15.217       0.548
 C          17.983      -7.690       0.984
 C          15.672     -16.447       0.731
 C          16.509      -7.668       1.041
 C          14.277     -16.425       0.712
 C          20.912      -7.736       0.622
 C          20.234      -8.977       0.692
 C          18.726      -8.926       0.793
 C          20.893     -10.287       0.662
 C          20.185     -11.538       0.683
 C          11.461      -6.359       0.755
 C          21.066       2.345       0.165
 C          20.848     -12.821       0.536
 C          20.371       1.060       0.324
 C          20.105     -13.986       0.515
 C          21.016      -0.197       0.322
 C          10.015      -6.346       0.454
 C          10.044      -3.839       0.260
 C          10.079      -1.313       0.279
 C           9.355      -2.577       0.117
 C           9.322      -5.089       0.191
 C           9.260      -7.596       0.376
 C           9.361      -0.055       0.097
