   142
 frame    458
 H          22.172       4.851      -0.067
 H          20.938       7.032      -0.099
 H          18.753       8.311      -0.074
 H          14.063       9.635      -0.055
 H          16.571       9.603      -0.037
 H           9.637       7.173      -0.196
 H           8.348       5.026      -0.217
 H          11.850       8.399      -0.126
 H           8.142     -10.125       0.251
 H           8.313       2.496      -0.186
 H           8.113     -12.652       0.384
 H           9.346     -14.828       0.525
 H          11.529     -16.106       0.629
 H          16.217     -17.428       0.736
 H          13.711     -17.396       0.717
 H          20.647     -14.970       0.637
 H          22.082      -2.727       0.249
 H          22.049      -5.248       0.355
 H          22.011      -7.770       0.426
 H          21.972     -10.296       0.489
 H          22.143       2.322       0.013
 H          21.936     -12.823       0.564
 H          18.431     -16.193       0.686
 H          22.114      -0.204       0.122
 H           8.238      -2.554      -0.062
 H           8.203      -5.077       0.031
 H           8.170      -7.600       0.134
 H           8.273      -0.032      -0.137
 C          18.911       3.615      -0.499
 C          20.394       3.578      -0.462
 C          21.082       4.880      -0.269
 C          16.725       4.897      -0.588
 C          18.175       4.877      -0.441
 C          18.906       6.122      -0.181
 C          20.393       6.067      -0.112
 C          12.358       4.961      -0.504
 C          13.805       4.939      -0.633
 C          14.548       6.180      -0.350
 C          16.009       6.152      -0.330
 C          16.777       7.356      -0.080
 C          18.207       7.349      -0.049
 C          11.641       6.215      -0.246
 C          12.372       7.424      -0.092
 C          13.807       7.398      -0.107
 C          14.604       8.634      -0.060
 C          16.007       8.614      -0.041
 C           9.450       5.026      -0.404
 C          10.163       6.200      -0.206
 C          13.640      -7.650      -0.196
 C          12.174      -7.649      -0.264
 C          11.430      -8.917      -0.259
 C           9.953      -8.898      -0.046
 C          11.563      -1.335      -0.171
 C           9.216     -10.166      -0.015
 C          15.817      -8.939      -0.146
 C          14.358      -8.920      -0.168
 C          15.901      -1.402      -0.179
 C          13.621     -10.189      -0.168
 C          14.449      -1.385      -0.200
 C          12.138     -10.192      -0.127
 C          13.737      -2.641      -0.146
 C          11.593       3.712      -0.600
 C          11.390     -11.449      -0.090
 C          12.287      -2.613       0.010
 C          10.103       3.713      -0.574
 C           9.904     -11.417      -0.087
 C          11.555      -3.857       0.184
 C           9.382       2.486      -0.448
 C           9.220     -12.698       0.201
 C          20.234      -1.421       0.196
 C          17.991     -10.263      -0.041
 C          18.793      -1.425      -0.026
 C          16.509     -10.227      -0.132
 C          18.016      -2.686       0.128
 C          15.985       3.627      -0.639
 C          15.782     -11.488      -0.200
 C          16.581      -2.670      -0.088
 C          14.515       3.644      -0.673
 C          14.323     -11.479      -0.213
 C          13.778       2.393      -0.555
 C          13.574     -12.743      -0.097
 C          15.847      -3.905      -0.208
 C          14.441      -3.893      -0.240
 C          12.299       2.434      -0.536
 C          12.129     -12.706       0.049
 C          13.709      -5.127      -0.077
 C          11.560       1.178      -0.588
 C          11.384     -13.924       0.386
 C          12.256      -5.118       0.069
 C          10.079       1.191      -0.395
 C           9.901     -13.874       0.465
 C          20.930      -2.695       0.328
 C          18.705     -11.537       0.006
 C          20.224      -3.958       0.442
 C          18.164       2.362      -0.450
 C          17.935     -12.779       0.122
 C          18.708      -3.943       0.351
 C          16.681       2.354      -0.511
 C          16.493     -12.780      -0.058
 C          17.984      -5.197       0.204
 C          15.943       1.085      -0.453
 C          15.741     -13.989       0.286
 C          16.542      -5.164      -0.009
 C          14.482       1.108      -0.465
 C          14.277     -13.979       0.260
 C          15.836      -6.433      -0.014
 C          13.738      -0.135      -0.429
 C          13.512     -15.162       0.569
 C          14.385      -6.415      -0.040
 C          12.273      -0.103      -0.508
 C          12.081     -15.142       0.612
 C          20.898      -5.245       0.431
 C          18.873       1.083      -0.444
 C          18.639     -14.013       0.453
 C          20.163      -6.514       0.375
 C          18.126      -0.183      -0.387
 C          17.908     -15.210       0.660
 C          18.725      -6.473       0.136
 C          16.661      -0.172      -0.376
 C          16.484     -15.192       0.592
 C          18.024      -7.714      -0.159
 C          15.675     -16.432       0.672
 C          16.564      -7.691      -0.136
 C          14.276     -16.419       0.661
 C          20.872      -7.765       0.434
 C          20.206      -9.020       0.139
 C          18.735      -9.005      -0.110
 C          20.909     -10.306       0.185
 C          20.183     -11.542       0.067
 C          11.499      -6.386      -0.014
 C          21.086       2.346      -0.282
 C          20.833     -12.841       0.353
 C          20.345       1.068      -0.207
 C          20.117     -14.003       0.579
 C          20.978      -0.179       0.163
 C          10.045      -6.387       0.176
 C          10.046      -3.836       0.225
 C          10.113      -1.289       0.005
 C           9.383      -2.553       0.098
 C           9.343      -5.101       0.174
 C           9.303      -7.620       0.208
 C           9.402      -0.042      -0.044
