   142
 frame    872
 H          22.172       4.851      -0.067
 H          20.938       7.032      -0.099
 H          18.753       8.311      -0.074
 H          14.063       9.635      -0.055
 H          16.571       9.603      -0.037
 H           9.637       7.173      -0.196
 H           8.348       5.026      -0.217
 H          11.850       8.399      -0.126
 H           8.142     -10.125       0.251
 H           8.313       2.496      -0.186
 H           8.113     -12.652       0.384
 H           9.346     -14.828       0.525
 H          11.529     -16.106       0.629
 H          16.217     -17.428       0.736
 H          13.711     -17.396       0.717
 H          20.647     -14.970       0.637
 H          22.082      -2.727       0.249
 H          22.049      -5.248       0.355
 H          22.011      -7.770       0.426
 H          21.972     -10.296       0.489
 H          22.143       2.322       0.013
 H          21.936     -12.823       0.564
 H          18.431     -16.193       0.686
 H          22.114      -0.204       0.122
 H           8.238      -2.554      -0.062
 H           8.203      -5.077       0.031
 H           8.170      -7.600       0.134
 H           8.273      -0.032      -0.137
 C          18.914       3.622       0.238
 C          20.388       3.559       0.161
 C          21.064       4.855      -0.001
 C          16.714       4.860       0.037
 C          18.178       4.851       0.058
 C          18.890       6.102      -0.144
 C          20.375       6.058      -0.147
 C          12.338       4.918      -0.023
 C          13.794       4.892      -0.005
 C          14.528       6.161      -0.207
 C          16.013       6.152      -0.189
 C          16.766       7.401      -0.148
 C          18.196       7.336      -0.149
 C          11.660       6.189      -0.205
 C          12.387       7.414      -0.203
 C          13.816       7.438      -0.176
 C          14.602       8.655      -0.133
 C          16.005       8.640      -0.119
 C           9.450       5.001      -0.117
 C          10.176       6.191      -0.250
 C          13.639      -7.633       0.898
 C          12.176      -7.608       0.813
 C          11.382      -8.851       0.695
 C           9.900      -8.849       0.558
 C          11.503      -1.300       0.564
 C           9.209     -10.123       0.476
 C          15.789      -8.937       0.815
 C          14.335      -8.921       0.794
 C          15.899      -1.376       0.923
 C          13.544     -10.150       0.733
 C          14.419      -1.358       0.884
 C          12.070     -10.143       0.775
 C          13.651      -2.594       0.877
 C          11.567       3.705       0.125
 C          11.369     -11.404       0.669
 C          12.175      -2.571       0.762
 C          10.089       3.683       0.014
 C           9.891     -11.346       0.558
 C          11.432      -3.845       0.601
 C           9.387       2.467       0.024
 C           9.222     -12.658       0.471
 C          20.299      -1.424       0.459
 C          18.033     -10.215       0.880
 C          18.824      -1.395       0.709
 C          16.557     -10.188       0.803
 C          18.108      -2.653       0.896
 C          15.980       3.610       0.262
 C          15.780     -11.407       0.785
 C          16.633      -2.638       0.958
 C          14.492       3.624       0.235
 C          14.291     -11.391       0.747
 C          13.704       2.411       0.288
 C          13.571     -12.653       0.590
 C          15.876      -3.886       0.938
 C          14.375      -3.863       0.897
 C          12.236       2.435       0.312
 C          12.104     -12.647       0.586
 C          13.616      -5.108       0.966
 C          11.515       1.160       0.338
 C          11.393     -13.905       0.435
 C          12.135      -5.106       0.856
 C          10.031       1.183       0.193
 C           9.911     -13.868       0.398
 C          20.950      -2.698       0.344
 C          18.703     -11.505       0.778
 C          20.270      -3.960       0.494
 C          18.207       2.365       0.423
 C          17.943     -12.730       0.667
 C          18.829      -3.936       0.764
 C          16.730       2.369       0.355
 C          16.481     -12.691       0.618
 C          18.080      -5.183       0.980
 C          15.930       1.156       0.481
 C          15.750     -13.972       0.482
 C          16.603      -5.151       1.031
 C          14.470       1.165       0.441
 C          14.268     -13.950       0.455
 C          15.833      -6.386       1.097
 C          13.735      -0.097       0.606
 C          13.515     -15.192       0.533
 C          14.354      -6.371       1.068
 C          12.265      -0.083       0.548
 C          12.084     -15.143       0.497
 C          20.920      -5.245       0.448
 C          18.887       1.070       0.471
 C          18.625     -13.995       0.516
 C          20.222      -6.489       0.658
 C          18.091      -0.154       0.657
 C          17.899     -15.210       0.558
 C          18.753      -6.468       0.900
 C          16.614      -0.125       0.681
 C          16.470     -15.231       0.566
 C          17.981      -7.675       0.931
 C          15.675     -16.454       0.650
 C          16.519      -7.674       0.950
 C          14.275     -16.438       0.630
 C          20.936      -7.740       0.621
 C          20.236      -8.983       0.750
 C          18.751      -8.941       0.831
 C          20.894     -10.270       0.675
 C          20.180     -11.478       0.704
 C          11.445      -6.377       0.753
 C          21.065       2.322       0.184
 C          20.831     -12.802       0.615
 C          20.374       1.055       0.362
 C          20.109     -13.988       0.499
 C          21.045      -0.204       0.330
 C           9.979      -6.366       0.422
 C          10.000      -3.834       0.256
 C          10.042      -1.299       0.261
 C           9.368      -2.550       0.088
 C           9.323      -5.109       0.176
 C           9.230      -7.593       0.374
 C           9.337      -0.058       0.099
