   142
 frame    961
 H          22.172       4.851      -0.067
 H          20.938       7.032      -0.099
 H          18.753       8.311      -0.074
 H          14.063       9.635      -0.055
 H          16.571       9.603      -0.037
 H           9.637       7.173      -0.196
 H           8.348       5.026      -0.217
 H          11.850       8.399      -0.126
 H           8.142     -10.125       0.251
 H           8.313       2.496      -0.186
 H           8.113     -12.652       0.384
 H           9.346     -14.828       0.525
 H          11.529     -16.106       0.629
 H          16.217     -17.428       0.736
 H          13.711     -17.396       0.717
 H          20.647     -14.970       0.637
 H          22.082      -2.727       0.249
 H          22.049      -5.248       0.355
 H          22.011      -7.770       0.426
 H          21.972     -10.296       0.489
 H          22.143       2.322       0.013
 H          21.936     -12.823       0.564
 H          18.431     -16.193       0.686
 H          22.114      -0.204       0.122
 H           8.238      -2.554      -0.062
 H           8.203      -5.077       0.031
 H           8.170      -7.600       0.134
 H           8.273      -0.032      -0.137
 C          18.883       3.551       0.048
 C          20.344       3.537       0.006
 C          21.074       4.820       0.020
 C          16.702       4.882      -0.059
 C          18.175       4.827      -0.021
 C          18.950       6.102       0.110
 C          20.416       6.044       0.084
 C          12.344       4.898      -0.091
 C          13.802       4.921      -0.096
 C          14.532       6.160       0.042
 C          16.007       6.137       0.065
 C          16.791       7.387       0.036
 C          18.239       7.337       0.032
 C          11.599       6.197       0.052
 C          12.339       7.417      -0.023
 C          13.790       7.423       0.017
 C          14.604       8.661      -0.013
 C          16.006       8.657      -0.005
 C           9.447       4.963      -0.111
 C          10.131       6.168      -0.026
 C          13.612      -7.589       0.933
 C          12.139      -7.580       0.694
 C          11.416      -8.833       0.427
 C           9.951      -8.838       0.224
 C          11.432      -1.342       0.609
 C           9.270     -10.098       0.209
 C          15.796      -8.850       0.758
 C          14.336      -8.842       0.742
 C          15.904      -1.367       1.024
 C          13.594     -10.106       0.534
 C          14.419      -1.350       0.997
 C          12.133     -10.073       0.524
 C          13.641      -2.585       0.889
 C          11.610       3.641      -0.038
 C          11.411     -11.355       0.469
 C          12.130      -2.590       0.918
 C          10.146       3.666      -0.141
 C           9.945     -11.338       0.379
 C          11.395      -3.825       0.907
 C           9.442       2.433      -0.228
 C           9.212     -12.619       0.469
 C          20.363      -1.423       0.581
 C          17.980     -10.144       0.626
 C          18.906      -1.429       0.763
 C          16.511     -10.144       0.584
 C          18.151      -2.655       1.038
 C          15.973       3.611       0.001
 C          15.779     -11.417       0.504
 C          16.648      -2.615       0.960
 C          14.506       3.627      -0.027
 C          14.305     -11.395       0.478
 C          13.765       2.367       0.126
 C          13.574     -12.677       0.499
 C          15.890      -3.878       0.826
 C          14.368      -3.858       0.779
 C          12.298       2.362       0.112
 C          12.105     -12.629       0.508
 C          13.609      -5.103       0.999
 C          11.554       1.136       0.080
 C          11.333     -13.891       0.689
 C          12.098      -5.067       1.000
 C          10.087       1.171      -0.108
 C           9.878     -13.830       0.629
 C          21.019      -2.707       0.521
 C          18.668     -11.447       0.571
 C          20.313      -3.947       0.753
 C          18.146       2.286       0.193
 C          17.944     -12.701       0.555
 C          18.850      -3.914       1.060
 C          16.676       2.334       0.171
 C          16.474     -12.713       0.513
 C          18.110      -5.141       1.135
 C          15.933       1.076       0.428
 C          15.749     -13.948       0.692
 C          16.610      -5.146       1.070
 C          14.468       1.098       0.397
 C          14.269     -13.932       0.664
 C          15.831      -6.372       1.203
 C          13.706      -0.117       0.675
 C          13.489     -15.187       0.695
 C          14.355      -6.354       1.171
 C          12.234      -0.112       0.441
 C          12.036     -15.134       0.680
 C          20.980      -5.235       0.634
 C          18.857       1.047       0.209
 C          18.687     -13.989       0.758
 C          20.290      -6.480       0.782
 C          18.134      -0.182       0.540
 C          17.948     -15.203       0.724
 C          18.828      -6.418       0.932
 C          16.655      -0.159       0.722
 C          16.492     -15.221       0.717
 C          18.023      -7.653       0.804
 C          15.681     -16.467       0.726
 C          16.549      -7.628       0.975
 C          14.277     -16.450       0.715
 C          20.932      -7.750       0.565
 C          20.199      -8.966       0.413
 C          18.728      -8.921       0.556
 C          20.844     -10.248       0.400
 C          20.137     -11.473       0.531
 C          11.362      -6.326       0.793
 C          21.020       2.289      -0.043
 C          20.835     -12.766       0.630
 C          20.335       1.035       0.059
 C          20.140     -13.968       0.754
 C          21.037      -0.192       0.277
 C           9.905      -6.344       0.554
 C           9.943      -3.819       0.514
 C           9.974      -1.301       0.366
 C           9.298      -2.562       0.252
 C           9.252      -5.091       0.358
 C           9.241      -7.603       0.320
 C           9.340      -0.046       0.067
