   142
 frame    824
 H          22.172       4.851      -0.067
 H          20.938       7.032      -0.099
 H          18.753       8.311      -0.074
 H          14.063       9.635      -0.055
 H          16.571       9.603      -0.037
 H           9.637       7.173      -0.196
 H           8.348       5.026      -0.217
 H          11.850       8.399      -0.126
 H           8.142     -10.125       0.251
 H           8.313       2.496      -0.186
 H           8.113     -12.652       0.384
 H           9.346     -14.828       0.525
 H          11.529     -16.106       0.629
 H          16.217     -17.428       0.736
 H          13.711     -17.396       0.717
 H          20.647     -14.970       0.637
 H          22.082      -2.727       0.249
 H          22.049      -5.248       0.355
 H          22.011      -7.770       0.426
 H          21.972     -10.296       0.489
 H          22.143       2.322       0.013
 H          21.936     -12.823       0.564
 H          18.431     -16.193       0.686
 H          22.114      -0.204       0.122
 H           8.238      -2.554      -0.062
 H           8.203      -5.077       0.031
 H           8.170      -7.600       0.134
 H           8.273      -0.032      -0.137
 C          18.838       3.562       0.040
 C          20.332       3.541      -0.055
 C          21.086       4.824       0.058
 C          16.665       4.900       0.062
 C          18.128       4.848       0.033
 C          18.924       6.102       0.038
 C          20.427       6.048       0.061
 C          12.383       4.918      -0.027
 C          13.848       4.934       0.013
 C          14.547       6.206       0.074
 C          16.005       6.191       0.081
 C          16.758       7.420       0.033
 C          18.192       7.352       0.035
 C          11.627       6.195      -0.033
 C          12.384       7.437      -0.017
 C          13.819       7.467       0.010
 C          14.614       8.691      -0.160
 C          16.002       8.670      -0.155
 C           9.438       4.968      -0.076
 C          10.126       6.175      -0.056
 C          13.638      -7.629       1.037
 C          12.164      -7.628       0.750
 C          11.392      -8.879       0.678
 C           9.967      -8.849       0.390
 C          11.519      -1.304       0.339
 C           9.268     -10.103       0.204
 C          15.785      -8.948       1.265
 C          14.329      -8.928       1.254
 C          15.912      -1.403       0.786
 C          13.583     -10.182       0.983
 C          14.417      -1.391       0.769
 C          12.110     -10.133       0.795
 C          13.640      -2.613       0.544
 C          11.641       3.656      -0.043
 C          11.447     -11.368       0.443
 C          12.177      -2.586       0.405
 C          10.153       3.669      -0.205
 C           9.954     -11.349       0.292
 C          11.423      -3.852       0.403
 C           9.433       2.428      -0.222
 C           9.198     -12.615       0.514
 C          20.324      -1.427       0.396
 C          17.982     -10.203       0.901
 C          18.829      -1.394       0.507
 C          16.508     -10.215       1.035
 C          18.135      -2.661       0.535
 C          15.953       3.637       0.245
 C          15.755     -11.439       0.793
 C          16.663      -2.657       0.603
 C          14.519       3.648       0.227
 C          14.311     -11.427       0.766
 C          13.758       2.439       0.516
 C          13.606     -12.693       0.621
 C          15.898      -3.915       0.530
 C          14.384      -3.896       0.496
 C          12.286       2.420       0.360
 C          12.144     -12.642       0.565
 C          13.611      -5.137       0.617
 C          11.542       1.179       0.315
 C          11.362     -13.893       0.640
 C          12.136      -5.127       0.505
 C          10.107       1.185       0.034
 C           9.858     -13.833       0.623
 C          21.006      -2.697       0.451
 C          18.633     -11.453       0.556
 C          20.322      -3.957       0.563
 C          18.147       2.348       0.445
 C          17.902     -12.715       0.643
 C          18.851      -3.938       0.563
 C          16.666       2.404       0.568
 C          16.434     -12.723       0.650
 C          18.103      -5.195       0.641
 C          15.915       1.191       0.897
 C          15.734     -13.994       0.759
 C          16.620      -5.170       0.707
 C          14.472       1.200       0.877
 C          14.277     -13.974       0.739
 C          15.843      -6.371       0.983
 C          13.737      -0.089       0.753
 C          13.522     -15.211       0.720
 C          14.355      -6.355       0.945
 C          12.271      -0.068       0.467
 C          12.082     -15.145       0.712
 C          20.975      -5.232       0.564
 C          18.875       1.092       0.458
 C          18.662     -13.983       0.728
 C          20.258      -6.481       0.597
 C          18.108      -0.144       0.596
 C          17.906     -15.220       0.760
 C          18.763      -6.479       0.710
 C          16.624      -0.124       0.807
 C          16.460     -15.244       0.740
 C          18.002      -7.699       0.877
 C          15.673     -16.480       0.584
 C          16.523      -7.662       1.101
 C          14.283     -16.468       0.577
 C          20.912      -7.756       0.551
 C          20.178      -8.979       0.594
 C          18.734      -8.966       0.834
 C          20.850     -10.244       0.411
 C          20.124     -11.475       0.456
 C          11.441      -6.392       0.546
 C          21.026       2.290      -0.038
 C          20.853     -12.762       0.698
 C          20.315       1.059       0.214
 C          20.163     -13.965       0.750
 C          21.013      -0.183       0.248
 C           9.948      -6.363       0.367
 C           9.957      -3.827       0.326
 C          10.022      -1.299       0.174
 C           9.307      -2.553       0.180
 C           9.262      -5.085       0.301
 C           9.258      -7.613       0.305
 C           9.368      -0.038       0.029
