   142
 frame     13
 H          22.172       4.851      -0.067
 H          20.938       7.032      -0.099
 H          18.753       8.311      -0.074
 H          14.063       9.635      -0.055
 H          16.571       9.603      -0.037
 H           9.637       7.173      -0.196
 H           8.348       5.026      -0.217
 H          11.850       8.399      -0.126
 H           8.142     -10.125       0.251
 H           8.313       2.496      -0.186
 H           8.113     -12.652       0.384
 H           9.346     -14.828       0.525
 H          11.529     -16.106       0.629
 H          16.217     -17.428       0.736
 H          13.711     -17.396       0.717
 H          20.647     -14.970       0.637
 H          22.082      -2.727       0.249
 H          22.049      -5.248       0.355
 H          22.011      -7.770       0.426
 H          21.972     -10.296       0.489
 H          22.143       2.322       0.013
 H          21.936     -12.823       0.564
 H          18.431     -16.193       0.686
 H          22.114      -0.204       0.122
 H           8.238      -2.554      -0.062
 H           8.203      -5.077       0.031
 H           8.170      -7.600       0.134
 H           8.273      -0.032      -0.137
 C          18.882       3.599      -0.034
 C          20.354       3.576      -0.030
 C          21.065       4.870      -0.062
 C          16.715       4.878      -0.062
 C          18.170       4.860      -0.057
 C          18.910       6.129      -0.070
 C          20.383       6.073      -0.079
 C          12.347       4.933      -0.121
 C          13.802       4.915      -0.094
 C          14.545       6.163      -0.085
 C          16.003       6.146      -0.072
 C          16.751       7.399      -0.065
 C          18.191       7.358      -0.071
 C          11.640       6.220      -0.139
 C          12.388       7.431      -0.119
 C          13.829       7.435      -0.090
 C          14.608       8.671      -0.065
 C          16.002       8.653      -0.055
 C           9.455       5.015      -0.189
 C          10.167       6.201      -0.177
 C          13.639      -7.636       0.271
 C          12.170      -7.632       0.265
 C          11.431      -8.885       0.293
 C           9.958      -8.868       0.247
 C          11.552      -1.354      -0.020
 C           9.248     -10.136       0.284
 C          15.805      -8.926       0.377
 C          14.344      -8.908       0.348
 C          15.902      -1.429       0.213
 C          13.602     -10.162       0.397
 C          14.445      -1.411       0.212
 C          12.140     -10.146       0.363
 C          13.701      -2.637       0.247
 C          11.604       3.690      -0.127
 C          11.402     -11.398       0.399
 C          12.262      -2.617       0.181
 C          10.132       3.705      -0.159
 C           9.930     -11.377       0.363
 C          11.516      -3.857       0.111
 C           9.419       2.481      -0.160
 C           9.219     -12.668       0.410
 C          20.291      -1.450       0.151
 C          17.975     -10.218       0.463
 C          18.808      -1.441       0.126
 C          16.512     -10.197       0.447
 C          18.061      -2.688       0.276
 C          15.972       3.625      -0.053
 C          15.770     -11.442       0.483
 C          16.603      -2.679       0.302
 C          14.513       3.644      -0.071
 C          14.312     -11.424       0.461
 C          13.770       2.398      -0.063
 C          13.568     -12.676       0.501
 C          15.898      -3.879       0.508
 C          14.364      -3.862       0.495
 C          12.309       2.419      -0.092
 C          12.113     -12.658       0.473
 C          13.661      -5.112       0.349
 C          11.567       1.175      -0.079
 C          11.373     -13.926       0.520
 C          12.223      -5.112       0.279
 C          10.094       1.194      -0.118
 C           9.901     -13.871       0.487
 C          20.975      -2.712       0.230
 C          18.680     -11.489       0.509
 C          20.263      -3.965       0.260
 C          18.144       2.347      -0.007
 C          17.937     -12.731       0.548
 C          18.775      -3.946       0.275
 C          16.681       2.362      -0.020
 C          16.481     -12.712       0.537
 C          18.030      -5.186       0.407
 C          15.941       1.105      -0.008
 C          15.737     -13.960       0.581
 C          16.582      -5.152       0.411
 C          14.479       1.121      -0.035
 C          14.280     -13.942       0.566
 C          15.838      -6.395       0.444
 C          13.741      -0.139      -0.017
 C          13.531     -15.193       0.613
 C          14.378      -6.377       0.409
 C          12.274      -0.097      -0.024
 C          12.090     -15.153       0.591
 C          20.943      -5.232       0.337
 C          18.853       1.084       0.042
 C          18.643     -14.017       0.599
 C          20.224      -6.478       0.356
 C          18.113      -0.168       0.083
 C          17.894     -15.227       0.646
 C          18.742      -6.453       0.335
 C          16.646      -0.172       0.032
 C          16.453     -15.231       0.639
 C          18.012      -7.704       0.388
 C          15.673     -16.465       0.689
 C          16.546      -7.674       0.334
 C          14.279     -16.448       0.678
 C          20.904      -7.754       0.415
 C          20.189      -8.994       0.445
 C          18.717      -8.975       0.434
 C          20.866     -10.281       0.484
 C          20.152     -11.504       0.518
 C          11.479      -6.362       0.174
 C          21.037       2.336       0.009
 C          20.829     -12.814       0.562
 C          20.326       1.067       0.052
 C          20.117     -13.999       0.603
 C          21.006      -0.192       0.111
 C           9.995      -6.352       0.127
 C          10.025      -3.839       0.021
 C          10.065      -1.325      -0.063
 C           9.345      -2.569      -0.029
 C           9.309      -5.089       0.066
 C           9.277      -7.611       0.170
 C           9.381      -0.048      -0.107
