   142
 frame    802
 H          22.172       4.851      -0.067
 H          20.938       7.032      -0.099
 H          18.753       8.311      -0.074
 H          14.063       9.635      -0.055
 H          16.571       9.603      -0.037
 H           9.637       7.173      -0.196
 H           8.348       5.026      -0.217
 H          11.850       8.399      -0.126
 H           8.142     -10.125       0.251
 H           8.313       2.496      -0.186
 H           8.113     -12.652       0.384
 H           9.346     -14.828       0.525
 H          11.529     -16.106       0.629
 H          16.217     -17.428       0.736
 H          13.711     -17.396       0.717
 H          20.647     -14.970       0.637
 H          22.082      -2.727       0.249
 H          22.049      -5.248       0.355
 H          22.011      -7.770       0.426
 H          21.972     -10.296       0.489
 H          22.143       2.322       0.013
 H          21.936     -12.823       0.564
 H          18.431     -16.193       0.686
 H          22.114      -0.204       0.122
 H           8.238      -2.554      -0.062
 H           8.203      -5.077       0.031
 H           8.170      -7.600       0.134
 H           8.273      -0.032      -0.137
 C          18.936       3.628       0.197
 C          20.388       3.605       0.088
 C          21.060       4.903      -0.059
 C          16.739       4.901       0.263
 C          18.202       4.871       0.055
 C          18.906       6.154      -0.048
 C          20.363       6.104      -0.080
 C          12.312       4.950      -0.011
 C          13.772       4.944       0.249
 C          14.529       6.154       0.205
 C          16.022       6.144       0.229
 C          16.770       7.380       0.031
 C          18.185       7.383      -0.032
 C          11.643       6.241      -0.124
 C          12.396       7.458      -0.082
 C          13.809       7.418       0.005
 C          14.615       8.667      -0.043
 C          15.997       8.650      -0.030
 C           9.460       5.056      -0.206
 C          10.189       6.232      -0.183
 C          13.605      -7.625       0.957
 C          12.146      -7.608       0.728
 C          11.399      -8.892       0.615
 C           9.974      -8.872       0.334
 C          11.549      -1.361       0.310
 C           9.245     -10.144       0.323
 C          15.794      -8.915       1.022
 C          14.326      -8.886       0.981
 C          15.899      -1.375       0.707
 C          13.577     -10.151       0.962
 C          14.432      -1.360       0.671
 C          12.098     -10.155       0.724
 C          13.705      -2.594       0.461
 C          11.552       3.721       0.092
 C          11.359     -11.418       0.610
 C          12.245      -2.608       0.429
 C          10.095       3.746      -0.044
 C           9.896     -11.403       0.459
 C          11.485      -3.848       0.397
 C           9.411       2.486      -0.110
 C           9.227     -12.712       0.390
 C          20.296      -1.447       0.335
 C          18.004     -10.231       0.832
 C          18.793      -1.445       0.462
 C          16.525     -10.193       1.010
 C          18.061      -2.680       0.551
 C          15.975       3.674       0.453
 C          15.778     -11.460       0.991
 C          16.600      -2.637       0.524
 C          14.505       3.692       0.433
 C          14.303     -11.442       0.969
 C          13.742       2.430       0.510
 C          13.544     -12.679       0.843
 C          15.875      -3.902       0.433
 C          14.415      -3.887       0.382
 C          12.262       2.452       0.291
 C          12.081     -12.669       0.581
 C          13.681      -5.140       0.559
 C          11.531       1.193       0.270
 C          11.384     -13.955       0.545
 C          12.214      -5.094       0.513
 C          10.095       1.207      -0.015
 C           9.926     -13.904       0.487
 C          20.973      -2.716       0.322
 C          18.724     -11.508       0.737
 C          20.258      -3.964       0.467
 C          18.187       2.382       0.377
 C          17.965     -12.737       0.659
 C          18.788      -3.937       0.563
 C          16.699       2.387       0.546
 C          16.497     -12.716       0.884
 C          18.030      -5.169       0.655
 C          15.937       1.132       0.625
 C          15.752     -13.950       0.873
 C          16.556      -5.173       0.633
 C          14.466       1.143       0.596
 C          14.266     -13.927       0.864
 C          15.831      -6.391       0.907
 C          13.707      -0.095       0.664
 C          13.512     -15.180       0.717
 C          14.364      -6.375       0.869
 C          12.246      -0.088       0.444
 C          12.093     -15.181       0.634
 C          20.933      -5.235       0.434
 C          18.876       1.106       0.396
 C          18.628     -14.042       0.626
 C          20.223      -6.476       0.553
 C          18.121      -0.163       0.553
 C          17.887     -15.261       0.689
 C          18.726      -6.431       0.668
 C          16.656      -0.135       0.720
 C          16.468     -15.221       0.745
 C          18.020      -7.683       0.857
 C          15.669     -16.462       0.724
 C          16.552      -7.665       1.012
 C          14.285     -16.447       0.706
 C          20.902      -7.757       0.481
 C          20.183      -8.998       0.538
 C          18.732      -8.979       0.758
 C          20.872     -10.284       0.539
 C          20.183     -11.529       0.643
 C          11.484      -6.334       0.502
 C          21.038       2.333       0.066
 C          20.823     -12.852       0.539
 C          20.312       1.070       0.179
 C          20.089     -14.027       0.613
 C          21.000      -0.194       0.187
 C           9.996      -6.352       0.322
 C          10.022      -3.836       0.232
 C          10.058      -1.325       0.099
 C           9.343      -2.573       0.057
 C           9.311      -5.093       0.156
 C           9.288      -7.614       0.226
 C           9.387      -0.050      -0.065
