   142
 frame    378
 H          22.172       4.851      -0.067
 H          20.938       7.032      -0.099
 H          18.753       8.311      -0.074
 H          14.063       9.635      -0.055
 H          16.571       9.603      -0.037
 H           9.637       7.173      -0.196
 H           8.348       5.026      -0.217
 H          11.850       8.399      -0.126
 H           8.142     -10.125       0.251
 H           8.313       2.496      -0.186
 H           8.113     -12.652       0.384
 H           9.346     -14.828       0.525
 H          11.529     -16.106       0.629
 H          16.217     -17.428       0.736
 H          13.711     -17.396       0.717
 H          20.647     -14.970       0.637
 H          22.082      -2.727       0.249
 H          22.049      -5.248       0.355
 H          22.011      -7.770       0.426
 H          21.972     -10.296       0.489
 H          22.143       2.322       0.013
 H          21.936     -12.823       0.564
 H          18.431     -16.193       0.686
 H          22.114      -0.204       0.122
 H           8.238      -2.554      -0.062
 H           8.203      -5.077       0.031
 H           8.170      -7.600       0.134
 H           8.273      -0.032      -0.137
 C          18.883       3.605      -0.450
 C          20.347       3.573      -0.356
 C          21.059       4.885      -0.290
 C          16.731       4.900      -0.653
 C          18.162       4.869      -0.575
 C          18.886       6.150      -0.438
 C          20.360       6.084      -0.302
 C          12.370       4.941      -0.636
 C          13.801       4.937      -0.702
 C          14.542       6.185      -0.690
 C          16.012       6.164      -0.648
 C          16.758       7.426      -0.476
 C          18.208       7.381      -0.306
 C          11.673       6.239      -0.515
 C          12.383       7.451      -0.348
 C          13.836       7.455      -0.499
 C          14.610       8.704      -0.361
 C          16.011       8.688      -0.353
 C           9.462       5.030      -0.427
 C          10.198       6.214      -0.404
 C          13.664      -7.688      -0.366
 C          12.186      -7.644      -0.356
 C          11.473      -8.897      -0.112
 C           9.985      -8.878       0.086
 C          11.518      -1.347      -0.503
 C           9.265     -10.165       0.066
 C          15.808      -8.983      -0.224
 C          14.365      -8.969      -0.247
 C          15.915      -1.361      -0.233
 C          13.612     -10.205      -0.170
 C          14.452      -1.339      -0.256
 C          12.155     -10.187      -0.059
 C          13.724      -2.641      -0.155
 C          11.616       3.696      -0.545
 C          11.419     -11.446      -0.092
 C          12.238      -2.608      -0.295
 C          10.141       3.705      -0.487
 C           9.949     -11.409      -0.000
 C          11.484      -3.864      -0.283
 C           9.427       2.499      -0.333
 C           9.222     -12.706       0.169
 C          20.303      -1.437      -0.084
 C          17.973     -10.259       0.044
 C          18.846      -1.442      -0.336
 C          16.523     -10.243      -0.112
 C          18.091      -2.682      -0.159
 C          15.985       3.638      -0.627
 C          15.783     -11.495      -0.162
 C          16.597      -2.676      -0.102
 C          14.522       3.665      -0.641
 C          14.319     -11.479      -0.196
 C          13.781       2.406      -0.560
 C          13.573     -12.736      -0.181
 C          15.861      -3.909       0.058
 C          14.429      -3.890       0.039
 C          12.323       2.426      -0.443
 C          12.131     -12.714      -0.120
 C          13.698      -5.140      -0.082
 C          11.592       1.160      -0.439
 C          11.394     -13.971       0.118
 C          12.205      -5.138      -0.205
 C          10.112       1.196      -0.231
 C           9.916     -13.906       0.236
 C          20.992      -2.700      -0.040
 C          18.682     -11.536       0.016
 C          20.288      -3.992      -0.179
 C          18.139       2.354      -0.357
 C          17.942     -12.780      -0.034
 C          18.817      -3.958      -0.098
 C          16.693       2.370      -0.520
 C          16.498     -12.771      -0.140
 C          18.055      -5.211      -0.076
 C          15.938       1.134      -0.545
 C          15.757     -14.015      -0.044
 C          16.569      -5.177      -0.030
 C          14.495       1.154      -0.557
 C          14.281     -13.995      -0.058
 C          15.845      -6.469      -0.078
 C          13.751      -0.105      -0.600
 C          13.532     -15.244       0.174
 C          14.384      -6.450      -0.101
 C          12.275      -0.112      -0.605
 C          12.088     -15.193       0.331
 C          20.962      -5.274       0.081
 C          18.828       1.073      -0.294
 C          18.631     -14.065       0.195
 C          20.236      -6.506       0.122
 C          18.133      -0.185      -0.489
 C          17.902     -15.266       0.393
 C          18.775      -6.480      -0.159
 C          16.655      -0.141      -0.554
 C          16.460     -15.284       0.205
 C          18.019      -7.711      -0.239
 C          15.680     -16.518       0.388
 C          16.545      -7.731      -0.307
 C          14.281     -16.500       0.375
 C          20.894      -7.755       0.422
 C          20.165      -9.010       0.278
 C          18.695      -8.991       0.040
 C          20.855     -10.309       0.278
 C          20.141     -11.534       0.148
 C          11.454      -6.388      -0.332
 C          21.032       2.345      -0.169
 C          20.840     -12.851       0.309
 C          20.308       1.072      -0.058
 C          20.105     -14.028       0.354
 C          21.003      -0.186       0.137
 C           9.985      -6.384      -0.108
 C          10.016      -3.860      -0.431
 C          10.051      -1.312      -0.290
 C           9.344      -2.555      -0.300
 C           9.305      -5.128      -0.199
 C           9.288      -7.613       0.180
 C           9.383      -0.046      -0.084
