   142
 frame    209
 H          22.172       4.851      -0.067
 H          20.938       7.032      -0.099
 H          18.753       8.311      -0.074
 H          14.063       9.635      -0.055
 H          16.571       9.603      -0.037
 H           9.637       7.173      -0.196
 H           8.348       5.026      -0.217
 H          11.850       8.399      -0.126
 H           8.142     -10.125       0.251
 H           8.313       2.496      -0.186
 H           8.113     -12.652       0.384
 H           9.346     -14.828       0.525
 H          11.529     -16.106       0.629
 H          16.217     -17.428       0.736
 H          13.711     -17.396       0.717
 H          20.647     -14.970       0.637
 H          22.082      -2.727       0.249
 H          22.049      -5.248       0.355
 H          22.011      -7.770       0.426
 H          21.972     -10.296       0.489
 H          22.143       2.322       0.013
 H          21.936     -12.823       0.564
 H          18.431     -16.193       0.686
 H          22.114      -0.204       0.122
 H           8.238      -2.554      -0.062
 H           8.203      -5.077       0.031
 H           8.170      -7.600       0.134
 H           8.273      -0.032      -0.137
 C          18.875       3.583      -0.120
 C          20.347       3.549      -0.097
 C          21.078       4.853      -0.171
 C          16.679       4.872       0.079
 C          18.144       4.837       0.070
 C          18.903       6.108      -0.053
 C          20.392       6.064      -0.200
 C          12.370       4.906      -0.000
 C          13.828       4.910       0.038
 C          14.552       6.175       0.102
 C          15.990       6.162       0.112
 C          16.739       7.417       0.097
 C          18.184       7.348       0.002
 C          11.648       6.197      -0.114
 C          12.401       7.419      -0.060
 C          13.839       7.451       0.086
 C          14.607       8.702       0.109
 C          16.000       8.680       0.114
 C           9.450       4.997      -0.288
 C          10.170       6.191      -0.298
 C          13.648      -7.693      -0.272
 C          12.168      -7.671      -0.306
 C          11.427      -8.912      -0.254
 C           9.961      -8.870      -0.063
 C          11.520      -1.335      -0.480
 C           9.272     -10.106       0.221
 C          15.815      -8.971       0.005
 C          14.342      -8.953      -0.024
 C          15.915      -1.399      -0.646
 C          13.610     -10.196      -0.001
 C          14.459      -1.378      -0.679
 C          12.146     -10.176      -0.069
 C          13.702      -2.643      -0.617
 C          11.617       3.675      -0.223
 C          11.418     -11.383       0.282
 C          12.231      -2.598      -0.504
 C          10.139       3.675      -0.220
 C           9.949     -11.354       0.287
 C          11.484      -3.870      -0.400
 C           9.430       2.442      -0.218
 C           9.231     -12.660       0.285
 C          20.325      -1.443      -0.206
 C          17.987     -10.244       0.037
 C          18.854      -1.425      -0.328
 C          16.521     -10.232       0.057
 C          18.102      -2.668      -0.363
 C          15.968       3.607      -0.205
 C          15.767     -11.445       0.297
 C          16.643      -2.681      -0.575
 C          14.515       3.628      -0.220
 C          14.315     -11.427       0.273
 C          13.779       2.395      -0.426
 C          13.597     -12.661       0.624
 C          15.902      -3.929      -0.559
 C          14.401      -3.909      -0.592
 C          12.303       2.411      -0.484
 C          12.131     -12.622       0.570
 C          13.665      -5.155      -0.540
 C          11.558       1.167      -0.595
 C          11.392     -13.911       0.509
 C          12.196      -5.162      -0.421
 C          10.094       1.170      -0.402
 C           9.919     -13.876       0.349
 C          20.990      -2.699      -0.013
 C          18.667     -11.478       0.389
 C          20.283      -3.977      -0.118
 C          18.168       2.343      -0.411
 C          17.913     -12.698       0.646
 C          18.822      -3.956      -0.230
 C          16.690       2.361      -0.375
 C          16.444     -12.700       0.646
 C          18.067      -5.234      -0.286
 C          15.952       1.139      -0.326
 C          15.724     -13.967       0.757
 C          16.607      -5.189      -0.475
 C          14.484       1.152      -0.363
 C          14.285     -13.950       0.748
 C          15.845      -6.454      -0.473
 C          13.750      -0.103      -0.513
 C          13.539     -15.207       0.778
 C          14.391      -6.436      -0.511
 C          12.270      -0.098      -0.573
 C          12.105     -15.149       0.636
 C          20.959      -5.262       0.090
 C          18.881       1.079      -0.482
 C          18.625     -13.999       0.603
 C          20.264      -6.514      -0.008
 C          18.134      -0.167      -0.461
 C          17.879     -15.219       0.689
 C          18.786      -6.498      -0.141
 C          16.656      -0.139      -0.455
 C          16.437     -15.240       0.808
 C          18.032      -7.739      -0.191
 C          15.668     -16.486       0.868
 C          16.548      -7.724      -0.200
 C          14.279     -16.475       0.852
 C          20.931      -7.788       0.123
 C          20.203      -8.999       0.127
 C          18.743      -9.007      -0.110
 C          20.851     -10.254       0.421
 C          20.139     -11.484       0.448
 C          11.453      -6.402      -0.301
 C          21.023       2.300      -0.045
 C          20.828     -12.802       0.443
 C          20.342       1.047      -0.240
 C          20.109     -13.995       0.477
 C          21.032      -0.179      -0.175
 C           9.970      -6.389      -0.235
 C          10.015      -3.854      -0.348
 C          10.045      -1.318      -0.414
 C           9.345      -2.554      -0.263
 C           9.306      -5.109      -0.177
 C           9.265      -7.644      -0.122
 C           9.375      -0.043      -0.389
