   142
 frame    602
 H          22.172       4.851      -0.067
 H          20.938       7.032      -0.099
 H          18.753       8.311      -0.074
 H          14.063       9.635      -0.055
 H          16.571       9.603      -0.037
 H           9.637       7.173      -0.196
 H           8.348       5.026      -0.217
 H          11.850       8.399      -0.126
 H           8.142     -10.125       0.251
 H           8.313       2.496      -0.186
 H           8.113     -12.652       0.384
 H           9.346     -14.828       0.525
 H          11.529     -16.106       0.629
 H          16.217     -17.428       0.736
 H          13.711     -17.396       0.717
 H          20.647     -14.970       0.637
 H          22.082      -2.727       0.249
 H          22.049      -5.248       0.355
 H          22.011      -7.770       0.426
 H          21.972     -10.296       0.489
 H          22.143       2.322       0.013
 H          21.936     -12.823       0.564
 H          18.431     -16.193       0.686
 H          22.114      -0.204       0.122
 H           8.238      -2.554      -0.062
 H           8.203      -5.077       0.031
 H           8.170      -7.600       0.134
 H           8.273      -0.032      -0.137
 C          18.866       3.576       0.086
 C          20.348       3.556      -0.026
 C          21.062       4.859      -0.016
 C          16.701       4.870       0.137
 C          18.146       4.840      -0.026
 C          18.902       6.116      -0.179
 C          20.381       6.064      -0.134
 C          12.366       4.904      -0.094
 C          13.807       4.900       0.087
 C          14.542       6.169       0.082
 C          16.003       6.151       0.107
 C          16.757       7.398      -0.077
 C          18.203       7.360      -0.219
 C          11.644       6.212      -0.241
 C          12.383       7.433      -0.263
 C          13.827       7.427      -0.103
 C          14.606       8.672      -0.126
 C          15.998       8.657      -0.120
 C           9.462       5.008      -0.147
 C          10.177       6.193      -0.237
 C          13.637      -7.646       0.356
 C          12.187      -7.634       0.188
 C          11.437      -8.864       0.315
 C           9.957      -8.851       0.162
 C          11.529      -1.354      -0.082
 C           9.240     -10.123       0.209
 C          15.800      -8.917       0.575
 C          14.338      -8.894       0.548
 C          15.909      -1.435       0.125
 C          13.574     -10.138       0.634
 C          14.441      -1.411       0.100
 C          12.129     -10.090       0.561
 C          13.715      -2.624      -0.234
 C          11.616       3.667       0.008
 C          11.425     -11.366       0.500
 C          12.238      -2.613      -0.156
 C          10.141       3.683      -0.140
 C           9.936     -11.359       0.351
 C          11.511      -3.873      -0.208
 C           9.411       2.462      -0.210
 C           9.220     -12.656       0.459
 C          20.306      -1.436       0.053
 C          17.980     -10.163       0.657
 C          18.832      -1.443       0.060
 C          16.530     -10.174       0.669
 C          18.083      -2.690      -0.043
 C          15.974       3.620       0.200
 C          15.777     -11.424       0.691
 C          16.616      -2.657      -0.197
 C          14.503       3.639       0.181
 C          14.307     -11.408       0.661
 C          13.741       2.392       0.207
 C          13.579     -12.653       0.653
 C          15.893      -3.928      -0.499
 C          14.414      -3.905      -0.530
 C          12.288       2.388       0.138
 C          12.140     -12.624       0.473
 C          13.678      -5.162      -0.133
 C          11.566       1.168      -0.020
 C          11.380     -13.916       0.395
 C          12.201      -5.136      -0.075
 C          10.087       1.176      -0.181
 C           9.910     -13.863       0.415
 C          20.993      -2.711       0.018
 C          18.659     -11.459       0.605
 C          20.290      -3.972      -0.071
 C          18.155       2.315       0.226
 C          17.913     -12.702       0.548
 C          18.784      -3.960      -0.062
 C          16.704       2.358       0.247
 C          16.468     -12.692       0.705
 C          18.057      -5.210       0.046
 C          15.931       1.107       0.216
 C          15.737     -13.947       0.746
 C          16.580      -5.195      -0.077
 C          14.480       1.127       0.192
 C          14.280     -13.930       0.735
 C          15.834      -6.389       0.309
 C          13.740      -0.115       0.090
 C          13.534     -15.174       0.615
 C          14.377      -6.370       0.280
 C          12.291      -0.090      -0.078
 C          12.089     -15.152       0.463
 C          20.960      -5.243       0.137
 C          18.845       1.068       0.095
 C          18.642     -14.004       0.484
 C          20.232      -6.484       0.259
 C          18.095      -0.165       0.036
 C          17.904     -15.228       0.515
 C          18.764      -6.457       0.222
 C          16.647      -0.153       0.134
 C          16.452     -15.221       0.652
 C          17.999      -7.699       0.309
 C          15.675     -16.459       0.646
 C          16.548      -7.683       0.405
 C          14.282     -16.436       0.638
 C          20.906      -7.758       0.402
 C          20.194      -8.984       0.343
 C          18.708      -8.955       0.450
 C          20.870     -10.268       0.399
 C          20.146     -11.484       0.503
 C          11.460      -6.367       0.088
 C          21.043       2.315      -0.059
 C          20.827     -12.800       0.613
 C          20.329       1.050      -0.016
 C          20.108     -13.985       0.551
 C          21.017      -0.184       0.111
 C           9.988      -6.362       0.046
 C          10.001      -3.842      -0.289
 C          10.052      -1.311      -0.132
 C           9.336      -2.562      -0.217
 C           9.296      -5.098      -0.118
 C           9.273      -7.614       0.174
 C           9.370      -0.045      -0.087
