   142
 frame    700
 H          22.172       4.851      -0.067
 H          20.938       7.032      -0.099
 H          18.753       8.311      -0.074
 H          14.063       9.635      -0.055
 H          16.571       9.603      -0.037
 H           9.637       7.173      -0.196
 H           8.348       5.026      -0.217
 H          11.850       8.399      -0.126
 H           8.142     -10.125       0.251
 H           8.313       2.496      -0.186
 H           8.113     -12.652       0.384
 H           9.346     -14.828       0.525
 H          11.529     -16.106       0.629
 H          16.217     -17.428       0.736
 H          13.711     -17.396       0.717
 H          20.647     -14.970       0.637
 H          22.082      -2.727       0.249
 H          22.049      -5.248       0.355
 H          22.011      -7.770       0.426
 H          21.972     -10.296       0.489
 H          22.143       2.322       0.013
 H          21.936     -12.823       0.564
 H          18.431     -16.193       0.686
 H          22.114      -0.204       0.122
 H           8.238      -2.554      -0.062
 H           8.203      -5.077       0.031
 H           8.170      -7.600       0.134
 H           8.273      -0.032      -0.137
 C          18.904       3.605       0.431
 C          20.378       3.597       0.411
 C          21.074       4.868       0.184
 C          16.742       4.921       0.500
 C          18.207       4.883       0.602
 C          18.933       6.158       0.390
 C          20.377       6.079       0.125
 C          12.294       4.950       0.535
 C          13.761       4.956       0.468
 C          14.528       6.191       0.388
 C          16.010       6.173       0.391
 C          16.747       7.438       0.312
 C          18.179       7.380       0.209
 C          11.610       6.252       0.315
 C          12.393       7.448       0.156
 C          13.831       7.477       0.292
 C          14.608       8.731       0.267
 C          16.000       8.709       0.266
 C           9.434       5.018       0.069
 C          10.168       6.208       0.032
 C          13.653      -7.670       0.519
 C          12.193      -7.649       0.430
 C          11.466      -8.907       0.352
 C           9.966      -8.905       0.265
 C          11.513      -1.326       0.150
 C           9.258     -10.142       0.446
 C          15.819      -8.997       0.571
 C          14.336      -8.980       0.553
 C          15.911      -1.407       0.237
 C          13.587     -10.240       0.511
 C          14.429      -1.388       0.212
 C          12.140     -10.176       0.534
 C          13.688      -2.622       0.070
 C          11.575       3.697       0.353
 C          11.374     -11.382       0.865
 C          12.210      -2.619       0.160
 C          10.093       3.721       0.286
 C           9.888     -11.375       0.799
 C          11.461      -3.855       0.176
 C           9.423       2.494       0.006
 C           9.201     -12.661       0.652
 C          20.302      -1.445       0.172
 C          17.978     -10.243       0.619
 C          18.834      -1.417       0.310
 C          16.527     -10.272       0.561
 C          18.103      -2.681       0.289
 C          15.984       3.682       0.269
 C          15.773     -11.489       0.800
 C          16.622      -2.661       0.133
 C          14.495       3.698       0.269
 C          14.300     -11.467       0.775
 C          13.749       2.475       0.044
 C          13.529     -12.691       1.043
 C          15.876      -3.917       0.014
 C          14.418      -3.894      -0.022
 C          12.296       2.449       0.073
 C          12.059     -12.640       1.123
 C          13.649      -5.132       0.165
 C          11.603       1.196       0.000
 C          11.334     -13.936       0.974
 C          12.170      -5.121       0.235
 C          10.107       1.224      -0.094
 C           9.906     -13.869       0.701
 C          20.977      -2.702       0.264
 C          18.701     -11.475       0.995
 C          20.289      -3.964       0.317
 C          18.150       2.380       0.150
 C          17.975     -12.723       1.199
 C          18.822      -3.945       0.347
 C          16.702       2.439       0.086
 C          16.509     -12.728       1.077
 C          18.075      -5.191       0.385
 C          15.956       1.189       0.178
 C          15.744     -13.970       1.013
 C          16.592      -5.171       0.249
 C          14.479       1.209       0.157
 C          14.268     -13.949       1.003
 C          15.842      -6.406       0.411
 C          13.754      -0.088       0.238
 C          13.538     -15.218       0.973
 C          14.364      -6.387       0.389
 C          12.300      -0.081       0.161
 C          12.092     -15.162       0.854
 C          20.951      -5.248       0.380
 C          18.810       1.096       0.116
 C          18.670     -14.032       1.048
 C          20.236      -6.486       0.415
 C          18.089      -0.149       0.261
 C          17.886     -15.231       0.909
 C          18.763      -6.468       0.527
 C          16.627      -0.126       0.286
 C          16.443     -15.255       0.988
 C          17.986      -7.724       0.575
 C          15.665     -16.511       1.004
 C          16.527      -7.700       0.592
 C          14.273     -16.490       0.989
 C          20.898      -7.780       0.379
 C          20.190      -9.033       0.463
 C          18.686      -8.997       0.503
 C          20.860     -10.292       0.657
 C          20.182     -11.515       0.973
 C          11.446      -6.380       0.353
 C          21.031       2.343       0.174
 C          20.837     -12.809       0.806
 C          20.315       1.094       0.081
 C          20.112     -14.002       0.819
 C          21.003      -0.178       0.061
 C           9.977      -6.365       0.178
 C           9.997      -3.840       0.083
 C          10.044      -1.318      -0.027
 C           9.331      -2.553       0.006
 C           9.295      -5.105       0.124
 C           9.281      -7.641       0.130
 C           9.389      -0.028      -0.155
