   142
 frame    766
 H          22.172       4.851      -0.067
 H          20.938       7.032      -0.099
 H          18.753       8.311      -0.074
 H          14.063       9.635      -0.055
 H          16.571       9.603      -0.037
 H           9.637       7.173      -0.196
 H           8.348       5.026      -0.217
 H          11.850       8.399      -0.126
 H           8.142     -10.125       0.251
 H           8.313       2.496      -0.186
 H           8.113     -12.652       0.384
 H           9.346     -14.828       0.525
 H          11.529     -16.106       0.629
 H          16.217     -17.428       0.736
 H          13.711     -17.396       0.717
 H          20.647     -14.970       0.637
 H          22.082      -2.727       0.249
 H          22.049      -5.248       0.355
 H          22.011      -7.770       0.426
 H          21.972     -10.296       0.489
 H          22.143       2.322       0.013
 H          21.936     -12.823       0.564
 H          18.431     -16.193       0.686
 H          22.114      -0.204       0.122
 H           8.238      -2.554      -0.062
 H           8.203      -5.077       0.031
 H           8.170      -7.600       0.134
 H           8.273      -0.032      -0.137
 C          18.868       3.610       0.344
 C          20.339       3.555       0.136
 C          21.055       4.854      -0.019
 C          16.691       4.913       0.494
 C          18.123       4.865       0.343
 C          18.864       6.087       0.037
 C          20.352       6.051      -0.112
 C          12.378       4.931       0.283
 C          13.809       4.948       0.456
 C          14.543       6.224       0.290
 C          15.997       6.204       0.311
 C          16.773       7.427       0.141
 C          18.211       7.331       0.004
 C          11.683       6.186      -0.038
 C          12.360       7.406      -0.048
 C          13.802       7.467       0.120
 C          14.593       8.667       0.121
 C          16.016       8.648       0.123
 C           9.467       5.001      -0.136
 C          10.198       6.176      -0.205
 C          13.647      -7.652       0.508
 C          12.181      -7.646       0.484
 C          11.424      -8.877       0.604
 C           9.950      -8.853       0.499
 C          11.537      -1.295       0.224
 C           9.255     -10.104       0.453
 C          15.805      -8.947       0.719
 C          14.340      -8.929       0.688
 C          15.911      -1.409       0.318
 C          13.583     -10.162       0.892
 C          14.438      -1.385       0.292
 C          12.125     -10.145       0.723
 C          13.659      -2.623       0.519
 C          11.602       3.696       0.239
 C          11.395     -11.386       0.764
 C          12.202      -2.610       0.322
 C          10.137       3.675       0.003
 C           9.936     -11.335       0.521
 C          11.445      -3.841       0.265
 C           9.425       2.471      -0.007
 C           9.224     -12.647       0.462
 C          20.280      -1.426       0.297
 C          17.982     -10.219       0.844
 C          18.809      -1.396       0.378
 C          16.519     -10.201       0.951
 C          18.105      -2.680       0.477
 C          15.962       3.651       0.566
 C          15.762     -11.425       1.085
 C          16.639      -2.655       0.581
 C          14.502       3.666       0.534
 C          14.305     -11.400       1.053
 C          13.760       2.429       0.445
 C          13.576     -12.672       1.038
 C          15.877      -3.889       0.711
 C          14.374      -3.874       0.673
 C          12.299       2.434       0.274
 C          12.144     -12.638       0.859
 C          13.621      -5.116       0.632
 C          11.555       1.192       0.235
 C          11.405     -13.884       0.600
 C          12.168      -5.095       0.449
 C          10.084       1.200       0.142
 C           9.921     -13.849       0.447
 C          20.983      -2.691       0.241
 C          18.668     -11.478       0.879
 C          20.323      -3.961       0.309
 C          18.143       2.362       0.356
 C          17.890     -12.714       0.944
 C          18.825      -3.935       0.454
 C          16.679       2.392       0.481
 C          16.461     -12.712       1.096
 C          18.069      -5.167       0.582
 C          15.936       1.150       0.340
 C          15.738     -13.991       0.968
 C          16.612      -5.149       0.690
 C          14.477       1.170       0.315
 C          14.266     -13.978       0.953
 C          15.839      -6.404       0.547
 C          13.754      -0.095       0.214
 C          13.494     -15.210       0.827
 C          14.372      -6.386       0.510
 C          12.297      -0.068       0.195
 C          12.057     -15.131       0.652
 C          20.956      -5.250       0.344
 C          18.855       1.095       0.359
 C          18.606     -13.977       0.695
 C          20.219      -6.490       0.488
 C          18.095      -0.136       0.315
 C          17.927     -15.203       0.709
 C          18.746      -6.474       0.576
 C          16.629      -0.130       0.262
 C          16.492     -15.244       0.865
 C          17.991      -7.714       0.623
 C          15.690     -16.450       0.878
 C          16.523      -7.689       0.561
 C          14.266     -16.432       0.867
 C          20.899      -7.754       0.552
 C          20.190      -8.982       0.706
 C          18.722      -8.973       0.760
 C          20.859     -10.255       0.648
 C          20.144     -11.469       0.679
 C          11.467      -6.389       0.400
 C          21.030       2.320       0.172
 C          20.823     -12.792       0.611
 C          20.327       1.078       0.317
 C          20.095     -13.977       0.560
 C          20.997      -0.177       0.237
 C           9.997      -6.360       0.258
 C           9.958      -3.832       0.054
 C          10.067      -1.300       0.086
 C           9.337      -2.543      -0.021
 C           9.301      -5.103       0.067
 C           9.278      -7.607       0.296
 C           9.381      -0.035       0.046
