   142
 frame    365
 H          22.172       4.851      -0.067
 H          20.938       7.032      -0.099
 H          18.753       8.311      -0.074
 H          14.063       9.635      -0.055
 H          16.571       9.603      -0.037
 H           9.637       7.173      -0.196
 H           8.348       5.026      -0.217
 H          11.850       8.399      -0.126
 H           8.142     -10.125       0.251
 H           8.313       2.496      -0.186
 H           8.113     -12.652       0.384
 H           9.346     -14.828       0.525
 H          11.529     -16.106       0.629
 H          16.217     -17.428       0.736
 H          13.711     -17.396       0.717
 H          20.647     -14.970       0.637
 H          22.082      -2.727       0.249
 H          22.049      -5.248       0.355
 H          22.011      -7.770       0.426
 H          21.972     -10.296       0.489
 H          22.143       2.322       0.013
 H          21.936     -12.823       0.564
 H          18.431     -16.193       0.686
 H          22.114      -0.204       0.122
 H           8.238      -2.554      -0.062
 H           8.203      -5.077       0.031
 H           8.170      -7.600       0.134
 H           8.273      -0.032      -0.137
 C          18.875       3.610      -0.326
 C          20.359       3.576      -0.280
 C          21.078       4.868      -0.291
 C          16.697       4.918      -0.654
 C          18.166       4.881      -0.422
 C          18.919       6.144      -0.388
 C          20.408       6.092      -0.327
 C          12.368       4.949      -0.487
 C          13.839       4.950      -0.697
 C          14.554       6.234      -0.821
 C          16.015       6.215      -0.807
 C          16.753       7.444      -0.511
 C          18.165       7.373      -0.316
 C          11.644       6.235      -0.469
 C          12.416       7.446      -0.365
 C          13.831       7.489      -0.543
 C          14.608       8.702      -0.302
 C          16.000       8.684      -0.299
 C           9.450       5.023      -0.416
 C          10.154       6.222      -0.424
 C          13.650      -7.698      -0.323
 C          12.174      -7.695      -0.384
 C          11.424      -8.924      -0.112
 C           9.976      -8.863       0.099
 C          11.537      -1.341      -0.458
 C           9.254     -10.131       0.149
 C          15.825      -9.011      -0.153
 C          14.341      -8.984      -0.187
 C          15.926      -1.416      -0.376
 C          13.608     -10.253      -0.206
 C          14.435      -1.406      -0.404
 C          12.151     -10.189      -0.106
 C          13.650      -2.603      -0.136
 C          11.619       3.698      -0.422
 C          11.410     -11.434       0.041
 C          12.203      -2.639      -0.394
 C          10.143       3.709      -0.403
 C           9.924     -11.402       0.066
 C          11.437      -3.877      -0.409
 C           9.432       2.460      -0.249
 C           9.211     -12.695       0.171
 C          20.303      -1.483      -0.050
 C          17.984     -10.265       0.001
 C          18.829      -1.431      -0.308
 C          16.530     -10.288      -0.136
 C          18.129      -2.712      -0.257
 C          15.977       3.665      -0.659
 C          15.783     -11.529      -0.208
 C          16.675      -2.642      -0.085
 C          14.527       3.677      -0.694
 C          14.329     -11.509      -0.232
 C          13.771       2.452      -0.586
 C          13.601     -12.761      -0.169
 C          15.910      -3.906       0.109
 C          14.373      -3.888       0.074
 C          12.315       2.431      -0.488
 C          12.136     -12.707       0.042
 C          13.616      -5.156      -0.055
 C          11.558       1.193      -0.440
 C          11.376     -13.972       0.152
 C          12.176      -5.122      -0.328
 C          10.106       1.174      -0.241
 C           9.890     -13.914       0.224
 C          21.030      -2.738      -0.035
 C          18.683     -11.526       0.156
 C          20.379      -3.980      -0.204
 C          18.150       2.359      -0.397
 C          17.926     -12.787       0.125
 C          18.862      -3.969      -0.233
 C          16.696       2.413      -0.542
 C          16.472     -12.801      -0.128
 C          18.093      -5.198      -0.174
 C          15.961       1.156      -0.487
 C          15.746     -14.079      -0.196
 C          16.633      -5.195       0.003
 C          14.474       1.171      -0.510
 C          14.288     -14.063      -0.206
 C          15.864      -6.420      -0.221
 C          13.748      -0.097      -0.561
 C          13.540     -15.271       0.135
 C          14.376      -6.399      -0.255
 C          12.269      -0.075      -0.640
 C          12.117     -15.185       0.320
 C          20.990      -5.228       0.068
 C          18.873       1.096      -0.313
 C          18.652     -14.061       0.238
 C          20.226      -6.466       0.145
 C          18.126      -0.150      -0.513
 C          17.871     -15.258       0.388
 C          18.762      -6.494      -0.132
 C          16.652      -0.133      -0.514
 C          16.454     -15.307       0.158
 C          18.029      -7.771      -0.266
 C          15.671     -16.507       0.446
 C          16.553      -7.735      -0.269
 C          14.280     -16.493       0.427
 C          20.879      -7.745       0.403
 C          20.176      -8.991       0.298
 C          18.728      -9.011       0.027
 C          20.861     -10.277       0.361
 C          20.173     -11.526       0.225
 C          11.473      -6.405      -0.298
 C          21.022       2.319      -0.082
 C          20.839     -12.837       0.307
 C          20.310       1.048      -0.050
 C          20.139     -14.041       0.325
 C          20.982      -0.211       0.112
 C           9.997      -6.333      -0.093
 C           9.928      -3.855      -0.455
 C          10.060      -1.357      -0.269
 C           9.298      -2.598      -0.296
 C           9.268      -5.081      -0.200
 C           9.299      -7.592       0.158
 C           9.401      -0.071      -0.101
