   142
 frame    923
 H          22.172       4.851      -0.067
 H          20.938       7.032      -0.099
 H          18.753       8.311      -0.074
 H          14.063       9.635      -0.055
 H          16.571       9.603      -0.037
 H           9.637       7.173      -0.196
 H           8.348       5.026      -0.217
 H          11.850       8.399      -0.126
 H           8.142     -10.125       0.251
 H           8.313       2.496      -0.186
 H           8.113     -12.652       0.384
 H           9.346     -14.828       0.525
 H          11.529     -16.106       0.629
 H          16.217     -17.428       0.736
 H          13.711     -17.396       0.717
 H          20.647     -14.970       0.637
 H          22.082      -2.727       0.249
 H          22.049      -5.248       0.355
 H          22.011      -7.770       0.426
 H          21.972     -10.296       0.489
 H          22.143       2.322       0.013
 H          21.936     -12.823       0.564
 H          18.431     -16.193       0.686
 H          22.114      -0.204       0.122
 H           8.238      -2.554      -0.062
 H           8.203      -5.077       0.031
 H           8.170      -7.600       0.134
 H           8.273      -0.032      -0.137
 C          18.886       3.628       0.175
 C          20.372       3.599       0.130
 C          21.060       4.899      -0.012
 C          16.697       4.859       0.003
 C          18.143       4.872       0.144
 C          18.862       6.150       0.074
 C          20.353       6.092      -0.030
 C          12.366       4.945       0.066
 C          13.827       4.883      -0.021
 C          14.547       6.162      -0.204
 C          15.998       6.154      -0.181
 C          16.736       7.418      -0.090
 C          18.155       7.373      -0.038
 C          11.684       6.238      -0.006
 C          12.429       7.439      -0.100
 C          13.843       7.451      -0.112
 C          14.610       8.674      -0.085
 C          16.003       8.647      -0.068
 C           9.465       5.047      -0.140
 C          10.198       6.218      -0.145
 C          13.648      -7.619       0.798
 C          12.205      -7.628       0.789
 C          11.404      -8.843       0.637
 C           9.945      -8.855       0.533
 C          11.566      -1.281       0.600
 C           9.221     -10.156       0.464
 C          15.800      -8.930       0.730
 C          14.334      -8.907       0.706
 C          15.898      -1.431       0.773
 C          13.553     -10.119       0.580
 C          14.428      -1.408       0.747
 C          12.092     -10.133       0.549
 C          13.714      -2.627       1.074
 C          11.598       3.712       0.063
 C          11.387     -11.398       0.585
 C          12.254      -2.555       0.835
 C          10.121       3.725      -0.015
 C           9.918     -11.380       0.512
 C          11.466      -3.827       0.766
 C           9.389       2.521       0.035
 C           9.228     -12.689       0.476
 C          20.251      -1.421       0.545
 C          18.009     -10.198       0.619
 C          18.766      -1.371       0.751
 C          16.553     -10.150       0.616
 C          18.041      -2.629       0.961
 C          15.984       3.571       0.045
 C          15.784     -11.370       0.548
 C          16.573      -2.676       1.118
 C          14.501       3.592       0.032
 C          14.299     -11.354       0.533
 C          13.720       2.382       0.140
 C          13.587     -12.634       0.551
 C          15.839      -3.864       1.490
 C          14.396      -3.847       1.470
 C          12.267       2.429       0.103
 C          12.134     -12.644       0.657
 C          13.675      -5.065       1.144
 C          11.548       1.171       0.289
 C          11.412     -13.928       0.677
 C          12.212      -5.107       0.928
 C          10.086       1.214       0.168
 C           9.926     -13.885       0.543
 C          20.960      -2.679       0.581
 C          18.679     -11.482       0.685
 C          20.269      -3.935       0.797
 C          18.185       2.350       0.187
 C          17.912     -12.722       0.738
 C          18.800      -3.916       0.933
 C          16.730       2.338       0.166
 C          16.464     -12.670       0.570
 C          18.009      -5.182       1.047
 C          15.942       1.138       0.381
 C          15.733     -13.964       0.450
 C          16.536      -5.101       1.188
 C          14.465       1.159       0.357
 C          14.281     -13.944       0.442
 C          15.829      -6.352       0.932
 C          13.759      -0.110       0.532
 C          13.540     -15.206       0.582
 C          14.359      -6.328       0.898
 C          12.306      -0.054       0.531
 C          12.124     -15.156       0.626
 C          20.928      -5.219       0.670
 C          18.866       1.077       0.417
 C          18.592     -14.022       0.760
 C          20.181      -6.474       0.737
 C          18.063      -0.131       0.635
 C          17.857     -15.231       0.674
 C          18.689      -6.473       0.937
 C          16.611      -0.144       0.579
 C          16.443     -15.245       0.601
 C          17.954      -7.705       0.922
 C          15.672     -16.468       0.658
 C          16.511      -7.657       0.856
 C          14.276     -16.447       0.647
 C          20.916      -7.730       0.635
 C          20.195      -8.977       0.724
 C          18.727      -8.932       0.764
 C          20.883     -10.293       0.673
 C          20.159     -11.506       0.668
 C          11.505      -6.380       0.789
 C          21.055       2.371       0.205
 C          20.823     -12.837       0.623
 C          20.324       1.081       0.346
 C          20.088     -14.016       0.654
 C          21.010      -0.187       0.353
 C          10.024      -6.347       0.518
 C           9.998      -3.814       0.564
 C          10.090      -1.297       0.341
 C           9.336      -2.537       0.326
 C           9.311      -5.081       0.416
 C           9.264      -7.590       0.401
 C           9.375      -0.037       0.110
