   142
 frame    417
 H          22.172       4.851      -0.067
 H          20.938       7.032      -0.099
 H          18.753       8.311      -0.074
 H          14.063       9.635      -0.055
 H          16.571       9.603      -0.037
 H           9.637       7.173      -0.196
 H           8.348       5.026      -0.217
 H          11.850       8.399      -0.126
 H           8.142     -10.125       0.251
 H           8.313       2.496      -0.186
 H           8.113     -12.652       0.384
 H           9.346     -14.828       0.525
 H          11.529     -16.106       0.629
 H          16.217     -17.428       0.736
 H          13.711     -17.396       0.717
 H          20.647     -14.970       0.637
 H          22.082      -2.727       0.249
 H          22.049      -5.248       0.355
 H          22.011      -7.770       0.426
 H          21.972     -10.296       0.489
 H          22.143       2.322       0.013
 H          21.936     -12.823       0.564
 H          18.431     -16.193       0.686
 H          22.114      -0.204       0.122
 H           8.238      -2.554      -0.062
 H           8.203      -5.077       0.031
 H           8.170      -7.600       0.134
 H           8.273      -0.032      -0.137
 C          18.917       3.617      -0.634
 C          20.375       3.555      -0.342
 C          21.063       4.860      -0.199
 C          16.727       4.867      -0.538
 C          18.197       4.868      -0.563
 C          18.928       6.127      -0.446
 C          20.369       6.071      -0.288
 C          12.328       4.946      -0.621
 C          13.798       4.901      -0.550
 C          14.540       6.153      -0.434
 C          16.011       6.134      -0.429
 C          16.779       7.385      -0.288
 C          18.205       7.365      -0.317
 C          11.631       6.219      -0.533
 C          12.371       7.448      -0.369
 C          13.797       7.426      -0.302
 C          14.605       8.638      -0.092
 C          16.006       8.621      -0.078
 C           9.460       5.008      -0.331
 C          10.184       6.208      -0.383
 C          13.637      -7.666      -0.041
 C          12.164      -7.668       0.025
 C          11.404      -8.888      -0.213
 C           9.912      -8.842      -0.188
 C          11.542      -1.342      -0.151
 C           9.244     -10.112       0.031
 C          15.819      -8.965      -0.144
 C          14.345      -8.951      -0.171
 C          15.915      -1.402      -0.266
 C          13.584     -10.202      -0.389
 C          14.449      -1.388      -0.306
 C          12.090     -10.180      -0.380
 C          13.674      -2.626      -0.264
 C          11.583       3.714      -0.747
 C          11.369     -11.454      -0.260
 C          12.201      -2.625      -0.167
 C          10.123       3.686      -0.487
 C           9.909     -11.384       0.000
 C          11.446      -3.865      -0.118
 C           9.414       2.442      -0.392
 C           9.219     -12.672       0.248
 C          20.317      -1.452      -0.033
 C          18.046     -10.244      -0.289
 C          18.820      -1.431       0.005
 C          16.555     -10.241      -0.341
 C          18.125      -2.699      -0.038
 C          15.984       3.616      -0.624
 C          15.790     -11.460      -0.167
 C          16.662      -2.655      -0.188
 C          14.521       3.639      -0.645
 C          14.318     -11.444      -0.186
 C          13.760       2.406      -0.766
 C          13.557     -12.686      -0.027
 C          15.908      -3.929      -0.169
 C          14.394      -3.907      -0.210
 C          12.275       2.416      -0.751
 C          12.092     -12.693      -0.074
 C          13.641      -5.167      -0.167
 C          11.546       1.159      -0.521
 C          11.363     -13.943       0.104
 C          12.172      -5.124      -0.071
 C          10.053       1.161      -0.532
 C           9.910     -13.884       0.251
 C          20.992      -2.701       0.261
 C          18.727     -11.540      -0.152
 C          20.309      -3.963       0.268
 C          18.197       2.336      -0.673
 C          17.970     -12.758       0.007
 C          18.856      -3.957       0.042
 C          16.709       2.361      -0.709
 C          16.506     -12.721       0.001
 C          18.088      -5.187       0.055
 C          15.950       1.119      -0.443
 C          15.751     -13.962       0.171
 C          16.623      -5.202      -0.095
 C          14.485       1.139      -0.470
 C          14.278     -13.946       0.164
 C          15.845      -6.437      -0.108
 C          13.742      -0.120      -0.276
 C          13.508     -15.199       0.359
 C          14.383      -6.418      -0.140
 C          12.275      -0.074      -0.216
 C          12.069     -15.180       0.325
 C          20.968      -5.235       0.346
 C          18.891       1.065      -0.413
 C          18.665     -14.039       0.181
 C          20.256      -6.471       0.149
 C          18.116      -0.148      -0.111
 C          17.916     -15.246       0.384
 C          18.763      -6.469       0.180
 C          16.654      -0.145      -0.210
 C          16.477     -15.232       0.379
 C          18.024      -7.739       0.132
 C          15.679     -16.437       0.660
 C          16.552      -7.703       0.023
 C          14.276     -16.418       0.644
 C          20.978      -7.735       0.066
 C          20.248      -8.960      -0.005
 C          18.758      -8.978      -0.069
 C          20.882     -10.252       0.226
 C          20.179     -11.508       0.160
 C          11.461      -6.378       0.022
 C          21.048       2.292      -0.211
 C          20.834     -12.814       0.407
 C          20.371       1.026      -0.360
 C          20.114     -14.008       0.369
 C          21.069      -0.219      -0.225
 C           9.960      -6.348      -0.080
 C           9.975      -3.836       0.034
 C          10.043      -1.328      -0.257
 C           9.321      -2.560      -0.018
 C           9.280      -5.088       0.080
 C           9.210      -7.589      -0.192
 C           9.326      -0.075      -0.449
