   142
 frame     96
 H          22.172       4.851      -0.067
 H          20.938       7.032      -0.099
 H          18.753       8.311      -0.074
 H          14.063       9.635      -0.055
 H          16.571       9.603      -0.037
 H           9.637       7.173      -0.196
 H           8.348       5.026      -0.217
 H          11.850       8.399      -0.126
 H           8.142     -10.125       0.251
 H           8.313       2.496      -0.186
 H           8.113     -12.652       0.384
 H           9.346     -14.828       0.525
 H          11.529     -16.106       0.629
 H          16.217     -17.428       0.736
 H          13.711     -17.396       0.717
 H          20.647     -14.970       0.637
 H          22.082      -2.727       0.249
 H          22.049      -5.248       0.355
 H          22.011      -7.770       0.426
 H          21.972     -10.296       0.489
 H          22.143       2.322       0.013
 H          21.936     -12.823       0.564
 H          18.431     -16.193       0.686
 H          22.114      -0.204       0.122
 H           8.238      -2.554      -0.062
 H           8.203      -5.077       0.031
 H           8.170      -7.600       0.134
 H           8.273      -0.032      -0.137
 C          18.870       3.581      -0.002
 C          20.348       3.553      -0.112
 C          21.064       4.846      -0.107
 C          16.705       4.869      -0.067
 C          18.150       4.828      -0.132
 C          18.887       6.094      -0.104
 C          20.368       6.047      -0.054
 C          12.362       4.901      -0.189
 C          13.806       4.909      -0.100
 C          14.550       6.145      -0.136
 C          15.995       6.125      -0.125
 C          16.742       7.371      -0.081
 C          18.183       7.336      -0.053
 C          11.661       6.185      -0.179
 C          12.395       7.410      -0.107
 C          13.839       7.409      -0.106
 C          14.609       8.655      -0.060
 C          16.005       8.636      -0.048
 C           9.453       4.988      -0.243
 C          10.176       6.171      -0.163
 C          13.631      -7.675      -0.100
 C          12.168      -7.641       0.008
 C          11.416      -8.861       0.389
 C           9.931      -8.855       0.412
 C          11.520      -1.340      -0.290
 C           9.236     -10.121       0.320
 C          15.815      -8.938       0.215
 C          14.345      -8.921       0.184
 C          15.932      -1.407      -0.390
 C          13.608     -10.141       0.549
 C          14.443      -1.393      -0.421
 C          12.131     -10.129       0.590
 C          13.675      -2.653      -0.483
 C          11.610       3.670      -0.087
 C          11.398     -11.379       0.436
 C          12.237      -2.637      -0.342
 C          10.138       3.675      -0.237
 C           9.934     -11.349       0.278
 C          11.485      -3.863      -0.324
 C           9.411       2.470      -0.121
 C           9.220     -12.645       0.351
 C          20.283      -1.450       0.159
 C          17.980     -10.203       0.683
 C          18.846      -1.429      -0.146
 C          16.505     -10.179       0.598
 C          18.099      -2.704      -0.231
 C          15.966       3.640       0.111
 C          15.765     -11.433       0.645
 C          16.673      -2.688      -0.419
 C          14.513       3.653       0.084
 C          14.307     -11.416       0.625
 C          13.786       2.392       0.096
 C          13.564     -12.661       0.494
 C          15.905      -3.939      -0.476
 C          14.409      -3.916      -0.504
 C          12.313       2.413       0.127
 C          12.116     -12.631       0.395
 C          13.640      -5.152      -0.386
 C          11.549       1.158       0.022
 C          11.383     -13.899       0.475
 C          12.203      -5.122      -0.257
 C          10.067       1.191       0.046
 C           9.903     -13.846       0.501
 C          20.985      -2.713       0.203
 C          18.682     -11.472       0.550
 C          20.276      -3.966       0.136
 C          18.139       2.346       0.225
 C          17.929     -12.702       0.477
 C          18.803      -3.961      -0.177
 C          16.670       2.364       0.139
 C          16.477     -12.695       0.534
 C          18.070      -5.192      -0.142
 C          15.951       1.106      -0.162
 C          15.734     -13.940       0.528
 C          16.633      -5.188      -0.311
 C          14.480       1.120      -0.172
 C          14.280     -13.922       0.511
 C          15.867      -6.445      -0.203
 C          13.733      -0.114      -0.376
 C          13.536     -15.171       0.595
 C          14.374      -6.423      -0.231
 C          12.259      -0.105      -0.258
 C          12.093     -15.134       0.605
 C          20.953      -5.238       0.290
 C          18.867       1.069       0.150
 C          18.633     -13.987       0.559
 C          20.214      -6.473       0.367
 C          18.144      -0.176      -0.163
 C          17.892     -15.206       0.660
 C          18.768      -6.479       0.052
 C          16.665      -0.156      -0.312
 C          16.449     -15.205       0.623
 C          18.027      -7.710       0.132
 C          15.676     -16.449       0.697
 C          16.564      -7.707      -0.043
 C          14.279     -16.433       0.687
 C          20.899      -7.732       0.519
 C          20.207      -8.980       0.601
 C          18.727      -8.956       0.518
 C          20.870     -10.268       0.526
 C          20.147     -11.479       0.440
 C          11.453      -6.388      -0.108
 C          21.039       2.327       0.033
 C          20.828     -12.795       0.505
 C          20.346       1.066       0.215
 C          20.113     -13.979       0.617
 C          21.004      -0.204       0.231
 C          10.003      -6.350       0.148
 C          10.008      -3.843      -0.092
 C          10.072      -1.325      -0.045
 C           9.338      -2.567      -0.075
 C           9.305      -5.097       0.022
 C           9.283      -7.582       0.292
 C           9.382      -0.064       0.017
