   142
 frame    726
 H          22.172       4.851      -0.067
 H          20.938       7.032      -0.099
 H          18.753       8.311      -0.074
 H          14.063       9.635      -0.055
 H          16.571       9.603      -0.037
 H           9.637       7.173      -0.196
 H           8.348       5.026      -0.217
 H          11.850       8.399      -0.126
 H           8.142     -10.125       0.251
 H           8.313       2.496      -0.186
 H           8.113     -12.652       0.384
 H           9.346     -14.828       0.525
 H          11.529     -16.106       0.629
 H          16.217     -17.428       0.736
 H          13.711     -17.396       0.717
 H          20.647     -14.970       0.637
 H          22.082      -2.727       0.249
 H          22.049      -5.248       0.355
 H          22.011      -7.770       0.426
 H          21.972     -10.296       0.489
 H          22.143       2.322       0.013
 H          21.936     -12.823       0.564
 H          18.431     -16.193       0.686
 H          22.114      -0.204       0.122
 H           8.238      -2.554      -0.062
 H           8.203      -5.077       0.031
 H           8.170      -7.600       0.134
 H           8.273      -0.032      -0.137
 C          18.886       3.612       0.393
 C          20.368       3.599       0.247
 C          21.079       4.882       0.180
 C          16.687       4.885       0.450
 C          18.159       4.880       0.476
 C          18.938       6.157       0.430
 C          20.393       6.102       0.219
 C          12.348       4.944       0.417
 C          13.817       4.919       0.423
 C          14.535       6.168       0.462
 C          16.001       6.151       0.472
 C          16.774       7.386       0.355
 C          18.208       7.400       0.290
 C          11.603       6.249       0.361
 C          12.366       7.471       0.246
 C          13.793       7.423       0.325
 C          14.599       8.636       0.067
 C          16.000       8.618       0.090
 C           9.439       5.026       0.051
 C          10.152       6.225       0.113
 C          13.607      -7.646       0.448
 C          12.149      -7.666       0.404
 C          11.415      -8.901       0.519
 C           9.932      -8.877       0.420
 C          11.546      -1.314       0.125
 C           9.236     -10.132       0.479
 C          15.807      -8.915       0.573
 C          14.332      -8.896       0.528
 C          15.908      -1.374       0.250
 C          13.584     -10.133       0.673
 C          14.442      -1.359       0.203
 C          12.136     -10.141       0.646
 C          13.736      -2.602       0.303
 C          11.595       3.704       0.298
 C          11.397     -11.393       0.821
 C          12.274      -2.583       0.148
 C          10.113       3.714       0.128
 C           9.916     -11.380       0.642
 C          11.555      -3.857       0.202
 C           9.395       2.480       0.052
 C           9.206     -12.666       0.657
 C          20.276      -1.440       0.236
 C          17.972     -10.207       0.767
 C          18.805      -1.404       0.252
 C          16.521     -10.171       0.732
 C          18.041      -2.656       0.277
 C          15.971       3.605       0.334
 C          15.761     -11.403       0.844
 C          16.575      -2.634       0.377
 C          14.509       3.626       0.308
 C          14.308     -11.378       0.827
 C          13.750       2.393       0.228
 C          13.580     -12.651       0.997
 C          15.838      -3.901       0.465
 C          14.436      -3.883       0.429
 C          12.295       2.418       0.209
 C          12.115     -12.643       1.006
 C          13.708      -5.151       0.384
 C          11.547       1.209       0.138
 C          11.339     -13.927       1.013
 C          12.242      -5.143       0.250
 C          10.066       1.207       0.052
 C           9.906     -13.875       0.778
 C          20.950      -2.707       0.333
 C          18.681     -11.491       0.937
 C          20.206      -3.960       0.427
 C          18.143       2.350       0.300
 C          17.921     -12.724       1.091
 C          18.734      -3.943       0.367
 C          16.684       2.352       0.277
 C          16.455     -12.688       1.036
 C          18.005      -5.209       0.398
 C          15.937       1.107       0.181
 C          15.728     -13.942       1.098
 C          16.533      -5.179       0.456
 C          14.465       1.126       0.142
 C          14.271     -13.923       1.085
 C          15.836      -6.433       0.462
 C          13.698      -0.109       0.151
 C          13.496     -15.165       1.007
 C          14.379      -6.422       0.405
 C          12.242      -0.051       0.111
 C          12.060     -15.176       0.955
 C          20.924      -5.236       0.440
 C          18.864       1.112       0.250
 C          18.663     -14.027       1.107
 C          20.216      -6.486       0.435
 C          18.138      -0.127       0.225
 C          17.911     -15.246       1.009
 C          18.735      -6.471       0.474
 C          16.679      -0.140       0.225
 C          16.479     -15.201       1.046
 C          18.023      -7.738       0.532
 C          15.679     -16.421       0.815
 C          16.572      -7.686       0.529
 C          14.272     -16.407       0.810
 C          20.896      -7.758       0.472
 C          20.208      -9.001       0.625
 C          18.716      -8.990       0.656
 C          20.870     -10.272       0.685
 C          20.154     -11.506       0.801
 C          11.482      -6.385       0.292
 C          21.052       2.344       0.197
 C          20.833     -12.806       0.818
 C          20.355       1.085       0.204
 C          20.104     -14.007       0.885
 C          21.006      -0.190       0.162
 C           9.999      -6.362       0.195
 C          10.067      -3.840       0.196
 C          10.071      -1.314       0.013
 C           9.358      -2.562       0.078
 C           9.320      -5.099       0.157
 C           9.281      -7.619       0.226
 C           9.384      -0.044      -0.064
