   142
 frame    368
 H          22.172       4.851      -0.067
 H          20.938       7.032      -0.099
 H          18.753       8.311      -0.074
 H          14.063       9.635      -0.055
 H          16.571       9.603      -0.037
 H           9.637       7.173      -0.196
 H           8.348       5.026      -0.217
 H          11.850       8.399      -0.126
 H           8.142     -10.125       0.251
 H           8.313       2.496      -0.186
 H           8.113     -12.652       0.384
 H           9.346     -14.828       0.525
 H          11.529     -16.106       0.629
 H          16.217     -17.428       0.736
 H          13.711     -17.396       0.717
 H          20.647     -14.970       0.637
 H          22.082      -2.727       0.249
 H          22.049      -5.248       0.355
 H          22.011      -7.770       0.426
 H          21.972     -10.296       0.489
 H          22.143       2.322       0.013
 H          21.936     -12.823       0.564
 H          18.431     -16.193       0.686
 H          22.114      -0.204       0.122
 H           8.238      -2.554      -0.062
 H           8.203      -5.077       0.031
 H           8.170      -7.600       0.134
 H           8.273      -0.032      -0.137
 C          18.872       3.605      -0.352
 C          20.353       3.582      -0.303
 C          21.070       4.870      -0.297
 C          16.694       4.908      -0.654
 C          18.169       4.868      -0.452
 C          18.920       6.146      -0.401
 C          20.389       6.093      -0.330
 C          12.364       4.938      -0.513
 C          13.840       4.942      -0.700
 C          14.560       6.228      -0.799
 C          16.005       6.209      -0.778
 C          16.751       7.441      -0.502
 C          18.170       7.381      -0.310
 C          11.648       6.234      -0.485
 C          12.415       7.453      -0.355
 C          13.834       7.485      -0.533
 C          14.606       8.696      -0.320
 C          16.003       8.680      -0.316
 C           9.456       5.025      -0.426
 C          10.169       6.223      -0.426
 C          13.656      -7.699      -0.340
 C          12.173      -7.692      -0.396
 C          11.434      -8.920      -0.107
 C           9.980      -8.863       0.098
 C          11.534      -1.348      -0.468
 C           9.261     -10.132       0.125
 C          15.816      -9.017      -0.162
 C          14.350      -8.992      -0.193
 C          15.921      -1.409      -0.343
 C          13.610     -10.250      -0.201
 C          14.444      -1.396      -0.370
 C          12.153     -10.186      -0.089
 C          13.662      -2.609      -0.132
 C          11.622       3.694      -0.449
 C          11.416     -11.436       0.012
 C          12.208      -2.633      -0.375
 C          10.146       3.714      -0.427
 C           9.931     -11.411       0.046
 C          11.440      -3.875      -0.375
 C           9.438       2.462      -0.270
 C           9.218     -12.700       0.166
 C          20.302      -1.477      -0.055
 C          17.981     -10.261       0.016
 C          18.832      -1.438      -0.315
 C          16.528     -10.286      -0.131
 C          18.118      -2.707      -0.236
 C          15.978       3.655      -0.650
 C          15.778     -11.518      -0.197
 C          16.662      -2.643      -0.083
 C          14.529       3.668      -0.682
 C          14.333     -11.498      -0.224
 C          13.772       2.454      -0.584
 C          13.605     -12.754      -0.176
 C          15.908      -3.906       0.105
 C          14.378      -3.887       0.074
 C          12.319       2.427      -0.470
 C          12.132     -12.702       0.011
 C          13.627      -5.155      -0.052
 C          11.562       1.190      -0.436
 C          11.374     -13.969       0.142
 C          12.185      -5.126      -0.303
 C          10.110       1.176      -0.237
 C           9.900     -13.918       0.218
 C          21.026      -2.730      -0.037
 C          18.681     -11.530       0.126
 C          20.373      -3.983      -0.215
 C          18.148       2.355      -0.382
 C          17.931     -12.777       0.095
 C          18.859      -3.969      -0.197
 C          16.696       2.413      -0.541
 C          16.469     -12.790      -0.135
 C          18.082      -5.201      -0.153
 C          15.953       1.162      -0.493
 C          15.734     -14.068      -0.166
 C          16.624      -5.194       0.003
 C          14.483       1.178      -0.513
 C          14.301     -14.051      -0.177
 C          15.856      -6.427      -0.190
 C          13.753      -0.096      -0.577
 C          13.544     -15.269       0.143
 C          14.385      -6.401      -0.221
 C          12.262      -0.075      -0.653
 C          12.113     -15.189       0.327
 C          20.992      -5.240       0.072
 C          18.866       1.097      -0.303
 C          18.655     -14.063       0.225
 C          20.226      -6.469       0.143
 C          18.132      -0.149      -0.526
 C          17.873     -15.260       0.395
 C          18.763      -6.486      -0.139
 C          16.649      -0.131      -0.532
 C          16.450     -15.305       0.165
 C          18.033      -7.767      -0.280
 C          15.674     -16.507       0.431
 C          16.547      -7.735      -0.285
 C          14.279     -16.490       0.411
 C          20.874      -7.748       0.422
 C          20.173      -8.990       0.294
 C          18.717      -9.004       0.036
 C          20.856     -10.279       0.339
 C          20.164     -11.536       0.203
 C          11.470      -6.395      -0.307
 C          21.017       2.318      -0.105
 C          20.833     -12.837       0.300
 C          20.304       1.049      -0.049
 C          20.125     -14.044       0.323
 C          20.980      -0.206       0.131
 C           9.997      -6.339      -0.094
 C           9.938      -3.856      -0.469
 C          10.061      -1.351      -0.271
 C           9.301      -2.590      -0.296
 C           9.269      -5.092      -0.198
 C           9.300      -7.594       0.177
 C           9.400      -0.066      -0.083
