   142
 frame    646
 H          22.172       4.851      -0.067
 H          20.938       7.032      -0.099
 H          18.753       8.311      -0.074
 H          14.063       9.635      -0.055
 H          16.571       9.603      -0.037
 H           9.637       7.173      -0.196
 H           8.348       5.026      -0.217
 H          11.850       8.399      -0.126
 H           8.142     -10.125       0.251
 H           8.313       2.496      -0.186
 H           8.113     -12.652       0.384
 H           9.346     -14.828       0.525
 H          11.529     -16.106       0.629
 H          16.217     -17.428       0.736
 H          13.711     -17.396       0.717
 H          20.647     -14.970       0.637
 H          22.082      -2.727       0.249
 H          22.049      -5.248       0.355
 H          22.011      -7.770       0.426
 H          21.972     -10.296       0.489
 H          22.143       2.322       0.013
 H          21.936     -12.823       0.564
 H          18.431     -16.193       0.686
 H          22.114      -0.204       0.122
 H           8.238      -2.554      -0.062
 H           8.203      -5.077       0.031
 H           8.170      -7.600       0.134
 H           8.273      -0.032      -0.137
 C          18.876       3.582       0.060
 C          20.348       3.571      -0.039
 C          21.048       4.876      -0.143
 C          16.711       4.836       0.346
 C          18.167       4.850       0.139
 C          18.863       6.114       0.067
 C          20.332       6.071      -0.147
 C          12.347       4.922       0.082
 C          13.780       4.870       0.328
 C          14.545       6.114       0.236
 C          15.992       6.095       0.239
 C          16.722       7.368       0.152
 C          18.157       7.352       0.088
 C          11.685       6.211       0.009
 C          12.419       7.433       0.043
 C          13.855       7.400       0.127
 C          14.609       8.654       0.056
 C          16.000       8.636       0.064
 C           9.476       5.027      -0.276
 C          10.227       6.195      -0.239
 C          13.645      -7.679       0.215
 C          12.195      -7.622       0.294
 C          11.450      -8.850       0.546
 C           9.967      -8.855       0.421
 C          11.546      -1.336      -0.076
 C           9.245     -10.129       0.411
 C          15.800      -8.917       0.647
 C          14.337      -8.901       0.610
 C          15.905      -1.373      -0.188
 C          13.606     -10.127       0.756
 C          14.460      -1.346      -0.224
 C          12.153     -10.106       0.586
 C          13.721      -2.601      -0.051
 C          11.610       3.669      -0.030
 C          11.402     -11.370       0.476
 C          12.243      -2.603      -0.173
 C          10.138       3.696      -0.174
 C           9.940     -11.371       0.339
 C          11.515      -3.876      -0.110
 C           9.408       2.479      -0.032
 C           9.246     -12.682       0.319
 C          20.286      -1.402       0.118
 C          17.953     -10.179       0.687
 C          18.818      -1.429       0.051
 C          16.492     -10.164       0.815
 C          18.085      -2.680      -0.058
 C          15.952       3.597       0.488
 C          15.754     -11.396       1.009
 C          16.612      -2.641       0.004
 C          14.508       3.618       0.486
 C          14.307     -11.378       0.976
 C          13.781       2.372       0.337
 C          13.551     -12.614       0.906
 C          15.880      -3.904       0.241
 C          14.408      -3.882       0.206
 C          12.320       2.390       0.159
 C          12.105     -12.630       0.660
 C          13.686      -5.174       0.065
 C          11.586       1.152       0.200
 C          11.415     -13.911       0.645
 C          12.214      -5.149      -0.080
 C          10.098       1.191       0.060
 C           9.959     -13.877       0.411
 C          20.943      -2.691       0.274
 C          18.672     -11.459       0.597
 C          20.247      -3.962       0.207
 C          18.125       2.320       0.248
 C          17.931     -12.703       0.735
 C          18.778      -3.957       0.037
 C          16.667       2.334       0.377
 C          16.479     -12.651       0.942
 C          18.044      -5.221       0.035
 C          15.934       1.112       0.291
 C          15.733     -13.889       0.878
 C          16.573      -5.209       0.114
 C          14.478       1.134       0.256
 C          14.283     -13.880       0.879
 C          15.837      -6.468      -0.006
 C          13.750      -0.091      -0.063
 C          13.552     -15.146       0.804
 C          14.400      -6.448      -0.030
 C          12.306      -0.107       0.012
 C          12.120     -15.143       0.737
 C          20.914      -5.243       0.355
 C          18.822       1.067       0.295
 C          18.599     -13.998       0.723
 C          20.222      -6.529       0.322
 C          18.085      -0.181       0.104
 C          17.861     -15.218       0.798
 C          18.747      -6.479       0.249
 C          16.653      -0.126      -0.013
 C          16.425     -15.178       0.840
 C          17.985      -7.689       0.416
 C          15.672     -16.436       0.805
 C          16.547      -7.717       0.271
 C          14.280     -16.422       0.795
 C          20.924      -7.784       0.467
 C          20.176      -8.992       0.616
 C          18.690      -8.941       0.674
 C          20.867     -10.281       0.617
 C          20.148     -11.496       0.496
 C          11.477      -6.390       0.103
 C          21.041       2.340       0.128
 C          20.805     -12.823       0.455
 C          20.318       1.070       0.224
 C          20.053     -14.000       0.517
 C          21.026      -0.171       0.166
 C          10.001      -6.410       0.088
 C          10.034      -3.839      -0.028
 C          10.074      -1.276      -0.093
 C           9.377      -2.553       0.011
 C           9.338      -5.103       0.085
 C           9.257      -7.636       0.213
 C           9.366      -0.030      -0.067
