   142
 frame    703
 H          22.172       4.851      -0.067
 H          20.938       7.032      -0.099
 H          18.753       8.311      -0.074
 H          14.063       9.635      -0.055
 H          16.571       9.603      -0.037
 H           9.637       7.173      -0.196
 H           8.348       5.026      -0.217
 H          11.850       8.399      -0.126
 H           8.142     -10.125       0.251
 H           8.313       2.496      -0.186
 H           8.113     -12.652       0.384
 H           9.346     -14.828       0.525
 H          11.529     -16.106       0.629
 H          16.217     -17.428       0.736
 H          13.711     -17.396       0.717
 H          20.647     -14.970       0.637
 H          22.082      -2.727       0.249
 H          22.049      -5.248       0.355
 H          22.011      -7.770       0.426
 H          21.972     -10.296       0.489
 H          22.143       2.322       0.013
 H          21.936     -12.823       0.564
 H          18.431     -16.193       0.686
 H          22.114      -0.204       0.122
 H           8.238      -2.554      -0.062
 H           8.203      -5.077       0.031
 H           8.170      -7.600       0.134
 H           8.273      -0.032      -0.137
 C          18.886       3.610       0.429
 C          20.378       3.600       0.416
 C          21.075       4.867       0.182
 C          16.733       4.907       0.511
 C          18.190       4.867       0.625
 C          18.927       6.136       0.403
 C          20.370       6.074       0.129
 C          12.307       4.935       0.560
 C          13.771       4.945       0.484
 C          14.530       6.182       0.378
 C          16.010       6.166       0.386
 C          16.747       7.433       0.311
 C          18.192       7.377       0.229
 C          11.613       6.227       0.327
 C          12.385       7.447       0.175
 C          13.824       7.471       0.291
 C          14.612       8.731       0.265
 C          16.001       8.712       0.264
 C           9.433       5.017       0.066
 C          10.172       6.198       0.033
 C          13.658      -7.679       0.516
 C          12.195      -7.660       0.450
 C          11.470      -8.907       0.357
 C           9.961      -8.896       0.287
 C          11.529      -1.331       0.151
 C           9.246     -10.159       0.459
 C          15.812      -8.993       0.579
 C          14.342      -8.977       0.558
 C          15.907      -1.400       0.242
 C          13.580     -10.220       0.516
 C          14.434      -1.383       0.215
 C          12.142     -10.187       0.518
 C          13.687      -2.620       0.086
 C          11.587       3.705       0.346
 C          11.386     -11.390       0.860
 C          12.210      -2.613       0.172
 C          10.092       3.728       0.293
 C           9.890     -11.379       0.804
 C          11.467      -3.855       0.153
 C           9.411       2.510       0.021
 C           9.196     -12.659       0.651
 C          20.291      -1.443       0.179
 C          17.972     -10.252       0.604
 C          18.821      -1.416       0.309
 C          16.534     -10.253       0.567
 C          18.099      -2.677       0.298
 C          15.989       3.664       0.266
 C          15.776     -11.474       0.792
 C          16.621      -2.658       0.151
 C          14.490       3.681       0.261
 C          14.300     -11.453       0.767
 C          13.740       2.459       0.052
 C          13.543     -12.676       1.060
 C          15.867      -3.918       0.060
 C          14.423      -3.894       0.022
 C          12.303       2.459       0.058
 C          12.076     -12.625       1.150
 C          13.650      -5.136       0.181
 C          11.607       1.194       0.004
 C          11.337     -13.916       0.986
 C          12.170      -5.122       0.247
 C          10.096       1.215      -0.074
 C           9.903     -13.862       0.700
 C          20.980      -2.691       0.275
 C          18.687     -11.484       0.989
 C          20.279      -3.963       0.343
 C          18.148       2.391       0.136
 C          17.953     -12.709       1.227
 C          18.819      -3.944       0.326
 C          16.710       2.422       0.095
 C          16.495     -12.714       1.092
 C          18.072      -5.193       0.397
 C          15.949       1.187       0.184
 C          15.738     -13.960       1.003
 C          16.592      -5.173       0.264
 C          14.486       1.205       0.161
 C          14.273     -13.938       0.991
 C          15.843      -6.405       0.416
 C          13.765      -0.072       0.229
 C          13.535     -15.212       0.977
 C          14.362      -6.389       0.391
 C          12.297      -0.070       0.181
 C          12.085     -15.159       0.873
 C          20.949      -5.259       0.391
 C          18.810       1.097       0.119
 C          18.665     -14.010       1.060
 C          20.223      -6.489       0.419
 C          18.087      -0.141       0.279
 C          17.895     -15.226       0.929
 C          18.745      -6.467       0.526
 C          16.619      -0.112       0.285
 C          16.446     -15.252       0.989
 C          17.985      -7.735       0.595
 C          15.667     -16.511       1.004
 C          16.523      -7.711       0.591
 C          14.273     -16.492       0.986
 C          20.895      -7.775       0.365
 C          20.196      -9.027       0.482
 C          18.681      -8.995       0.506
 C          20.870     -10.308       0.670
 C          20.180     -11.517       0.982
 C          11.464      -6.378       0.351
 C          21.039       2.358       0.184
 C          20.845     -12.808       0.801
 C          20.320       1.086       0.100
 C          20.113     -13.995       0.817
 C          21.002      -0.181       0.045
 C           9.990      -6.367       0.182
 C          10.005      -3.836       0.110
 C          10.057      -1.317      -0.020
 C           9.332      -2.544       0.017
 C           9.302      -5.119       0.134
 C           9.286      -7.637       0.115
 C           9.388      -0.035      -0.174
