   142
 frame    225
 H          22.172       4.851      -0.067
 H          20.938       7.032      -0.099
 H          18.753       8.311      -0.074
 H          14.063       9.635      -0.055
 H          16.571       9.603      -0.037
 H           9.637       7.173      -0.196
 H           8.348       5.026      -0.217
 H          11.850       8.399      -0.126
 H           8.142     -10.125       0.251
 H           8.313       2.496      -0.186
 H           8.113     -12.652       0.384
 H           9.346     -14.828       0.525
 H          11.529     -16.106       0.629
 H          16.217     -17.428       0.736
 H          13.711     -17.396       0.717
 H          20.647     -14.970       0.637
 H          22.082      -2.727       0.249
 H          22.049      -5.248       0.355
 H          22.011      -7.770       0.426
 H          21.972     -10.296       0.489
 H          22.143       2.322       0.013
 H          21.936     -12.823       0.564
 H          18.431     -16.193       0.686
 H          22.114      -0.204       0.122
 H           8.238      -2.554      -0.062
 H           8.203      -5.077       0.031
 H           8.170      -7.600       0.134
 H           8.273      -0.032      -0.137
 C          18.865       3.602      -0.246
 C          20.336       3.580      -0.138
 C          21.052       4.857      -0.155
 C          16.727       4.899       0.043
 C          18.150       4.868      -0.181
 C          18.901       6.129      -0.240
 C          20.382       6.071      -0.225
 C          12.373       4.941      -0.257
 C          13.794       4.937       0.000
 C          14.526       6.169       0.267
 C          16.016       6.148       0.302
 C          16.775       7.390       0.075
 C          18.193       7.362      -0.201
 C          11.651       6.227      -0.309
 C          12.385       7.440      -0.235
 C          13.803       7.430       0.041
 C          14.602       8.655       0.009
 C          16.006       8.636       0.005
 C           9.468       5.005      -0.273
 C          10.168       6.203      -0.315
 C          13.625      -7.681      -0.374
 C          12.175      -7.640      -0.245
 C          11.432      -8.908      -0.134
 C           9.940      -8.896      -0.033
 C          11.523      -1.365      -0.472
 C           9.246     -10.162       0.189
 C          15.810      -8.972      -0.220
 C          14.360      -8.961      -0.254
 C          15.948      -1.391      -0.713
 C          13.622     -10.212       0.004
 C          14.446      -1.374      -0.727
 C          12.141     -10.173      -0.001
 C          13.699      -2.633      -0.644
 C          11.626       3.689      -0.327
 C          11.418     -11.412       0.160
 C          12.249      -2.634      -0.452
 C          10.157       3.703      -0.270
 C           9.940     -11.387       0.234
 C          11.506      -3.863      -0.382
 C           9.427       2.497      -0.242
 C           9.216     -12.664       0.320
 C          20.322      -1.463      -0.125
 C          17.982     -10.242       0.107
 C          18.846      -1.455      -0.306
 C          16.500     -10.243       0.057
 C          18.093      -2.706      -0.327
 C          15.988       3.661      -0.123
 C          15.783     -11.479       0.374
 C          16.647      -2.669      -0.581
 C          14.507       3.675      -0.149
 C          14.305     -11.464       0.347
 C          13.784       2.437      -0.411
 C          13.555     -12.697       0.569
 C          15.893      -3.930      -0.619
 C          14.425      -3.914      -0.641
 C          12.313       2.433      -0.425
 C          12.136     -12.680       0.310
 C          13.664      -5.175      -0.561
 C          11.569       1.176      -0.483
 C          11.380     -13.935       0.327
 C          12.211      -5.121      -0.369
 C          10.080       1.200      -0.389
 C           9.886     -13.879       0.322
 C          21.019      -2.729      -0.038
 C          18.674     -11.499       0.273
 C          20.288      -3.965       0.053
 C          18.150       2.357      -0.340
 C          17.920     -12.744       0.385
 C          18.794      -3.955      -0.201
 C          16.672       2.395      -0.371
 C          16.496     -12.731       0.611
 C          18.062      -5.187      -0.237
 C          15.943       1.119      -0.555
 C          15.754     -13.937       0.935
 C          16.617      -5.210      -0.491
 C          14.494       1.139      -0.568
 C          14.254     -13.917       0.926
 C          15.881      -6.478      -0.540
 C          13.729      -0.119      -0.620
 C          13.513     -15.171       0.737
 C          14.374      -6.461      -0.567
 C          12.276      -0.113      -0.494
 C          12.095     -15.159       0.447
 C          20.983      -5.226       0.061
 C          18.870       1.090      -0.359
 C          18.645     -14.021       0.424
 C          20.243      -6.480       0.067
 C          18.129      -0.187      -0.388
 C          17.898     -15.229       0.513
 C          18.775      -6.460      -0.131
 C          16.683      -0.157      -0.567
 C          16.471     -15.214       0.754
 C          18.027      -7.710      -0.117
 C          15.678     -16.441       0.751
 C          16.581      -7.719      -0.308
 C          14.276     -16.421       0.739
 C          20.936      -7.760       0.148
 C          20.214      -9.023       0.163
 C          18.734      -8.998      -0.004
 C          20.869     -10.306       0.396
 C          20.144     -11.514       0.389
 C          11.455      -6.372      -0.300
 C          21.036       2.356      -0.073
 C          20.831     -12.811       0.468
 C          20.348       1.074      -0.226
 C          20.135     -14.006       0.444
 C          21.041      -0.208      -0.149
 C           9.977      -6.350      -0.164
 C          10.005      -3.839      -0.182
 C          10.038      -1.335      -0.333
 C           9.309      -2.589      -0.295
 C           9.278      -5.084      -0.203
 C           9.252      -7.610      -0.093
 C           9.350      -0.061      -0.355
