   142
 frame     54
 H          22.172       4.851      -0.067
 H          20.938       7.032      -0.099
 H          18.753       8.311      -0.074
 H          14.063       9.635      -0.055
 H          16.571       9.603      -0.037
 H           9.637       7.173      -0.196
 H           8.348       5.026      -0.217
 H          11.850       8.399      -0.126
 H           8.142     -10.125       0.251
 H           8.313       2.496      -0.186
 H           8.113     -12.652       0.384
 H           9.346     -14.828       0.525
 H          11.529     -16.106       0.629
 H          16.217     -17.428       0.736
 H          13.711     -17.396       0.717
 H          20.647     -14.970       0.637
 H          22.082      -2.727       0.249
 H          22.049      -5.248       0.355
 H          22.011      -7.770       0.426
 H          21.972     -10.296       0.489
 H          22.143       2.322       0.013
 H          21.936     -12.823       0.564
 H          18.431     -16.193       0.686
 H          22.114      -0.204       0.122
 H           8.238      -2.554      -0.062
 H           8.203      -5.077       0.031
 H           8.170      -7.600       0.134
 H           8.273      -0.032      -0.137
 C          18.887       3.598      -0.034
 C          20.352       3.566      -0.017
 C          21.060       4.856      -0.057
 C          16.718       4.876      -0.065
 C          18.169       4.850      -0.045
 C          18.904       6.113      -0.066
 C          20.380       6.064      -0.079
 C          12.347       4.925      -0.112
 C          13.799       4.915      -0.100
 C          14.545       6.156      -0.081
 C          16.002       6.137      -0.066
 C          16.749       7.388      -0.065
 C          18.190       7.346      -0.072
 C          11.644       6.204      -0.134
 C          12.387       7.420      -0.120
 C          13.830       7.426      -0.089
 C          14.607       8.665      -0.068
 C          16.003       8.647      -0.057
 C           9.458       5.002      -0.183
 C          10.168       6.191      -0.176
 C          13.638      -7.582       0.403
 C          12.166      -7.610       0.404
 C          11.435      -8.870       0.271
 C           9.955      -8.868       0.202
 C          11.537      -1.352       0.061
 C           9.242     -10.138       0.278
 C          15.800      -8.892       0.534
 C          14.340      -8.871       0.508
 C          15.923      -1.449      -0.181
 C          13.611     -10.137       0.376
 C          14.429      -1.441      -0.208
 C          12.142     -10.137       0.309
 C          13.695      -2.625      -0.437
 C          11.598       3.694      -0.132
 C          11.406     -11.391       0.394
 C          12.265      -2.634      -0.077
 C          10.133       3.697      -0.150
 C           9.936     -11.368       0.374
 C          11.473      -3.850       0.031
 C           9.403       2.488      -0.166
 C           9.224     -12.659       0.414
 C          20.283      -1.453       0.229
 C          17.975     -10.204       0.411
 C          18.805      -1.439       0.209
 C          16.507     -10.172       0.429
 C          18.056      -2.700       0.060
 C          15.974       3.626      -0.094
 C          15.773     -11.428       0.438
 C          16.635      -2.667      -0.371
 C          14.514       3.644      -0.111
 C          14.316     -11.412       0.415
 C          13.774       2.385      -0.076
 C          13.570     -12.665       0.494
 C          15.866      -3.938      -0.481
 C          14.448      -3.923      -0.508
 C          12.303       2.423      -0.141
 C          12.116     -12.646       0.483
 C          13.656      -5.164      -0.344
 C          11.561       1.172      -0.098
 C          11.378     -13.914       0.523
 C          12.224      -5.092       0.018
 C          10.077       1.200      -0.162
 C           9.903     -13.864       0.486
 C          20.959      -2.718       0.278
 C          18.678     -11.479       0.505
 C          20.247      -3.957       0.388
 C          18.152       2.346      -0.056
 C          17.934     -12.720       0.559
 C          18.800      -3.943       0.196
 C          16.676       2.345      -0.044
 C          16.482     -12.701       0.532
 C          18.035      -5.168       0.134
 C          15.934       1.086       0.142
 C          15.738     -13.948       0.587
 C          16.600      -5.201      -0.274
 C          14.474       1.104       0.121
 C          14.280     -13.930       0.571
 C          15.857      -6.385      -0.006
 C          13.739      -0.166       0.107
 C          13.533     -15.185       0.614
 C          14.366      -6.365      -0.036
 C          12.270      -0.100       0.113
 C          12.092     -15.146       0.589
 C          20.920      -5.218       0.386
 C          18.854       1.074       0.011
 C          18.640     -14.007       0.604
 C          20.215      -6.470       0.448
 C          18.100      -0.177       0.205
 C          17.894     -15.219       0.644
 C          18.749      -6.443       0.397
 C          16.627      -0.205       0.179
 C          16.452     -15.221       0.641
 C          18.001      -7.684       0.522
 C          15.674     -16.460       0.688
 C          16.530      -7.622       0.455
 C          14.279     -16.443       0.677
 C          20.897      -7.742       0.420
 C          20.189      -8.987       0.400
 C          18.709      -8.955       0.413
 C          20.869     -10.277       0.478
 C          20.149     -11.495       0.530
 C          11.465      -6.345       0.249
 C          21.048       2.335       0.008
 C          20.826     -12.806       0.567
 C          20.340       1.064       0.011
 C          20.115     -13.994       0.602
 C          21.000      -0.207       0.109
 C           9.994      -6.344       0.223
 C          10.024      -3.828       0.178
 C          10.067      -1.325       0.039
 C           9.359      -2.571       0.035
 C           9.327      -5.076       0.129
 C           9.284      -7.603       0.174
 C           9.387      -0.057      -0.102
