   142
 frame    292
 H          22.172       4.851      -0.067
 H          20.938       7.032      -0.099
 H          18.753       8.311      -0.074
 H          14.063       9.635      -0.055
 H          16.571       9.603      -0.037
 H           9.637       7.173      -0.196
 H           8.348       5.026      -0.217
 H          11.850       8.399      -0.126
 H           8.142     -10.125       0.251
 H           8.313       2.496      -0.186
 H           8.113     -12.652       0.384
 H           9.346     -14.828       0.525
 H          11.529     -16.106       0.629
 H          16.217     -17.428       0.736
 H          13.711     -17.396       0.717
 H          20.647     -14.970       0.637
 H          22.082      -2.727       0.249
 H          22.049      -5.248       0.355
 H          22.011      -7.770       0.426
 H          21.972     -10.296       0.489
 H          22.143       2.322       0.013
 H          21.936     -12.823       0.564
 H          18.431     -16.193       0.686
 H          22.114      -0.204       0.122
 H           8.238      -2.554      -0.062
 H           8.203      -5.077       0.031
 H           8.170      -7.600       0.134
 H           8.273      -0.032      -0.137
 C          18.901       3.594      -0.268
 C          20.381       3.566      -0.160
 C          21.081       4.844      -0.196
 C          16.751       4.880      -0.495
 C          18.213       4.868      -0.215
 C          18.946       6.128      -0.113
 C          20.406       6.056      -0.161
 C          12.307       4.943      -0.279
 C          13.777       4.920      -0.531
 C          14.541       6.187      -0.453
 C          16.025       6.165      -0.444
 C          16.775       7.417      -0.244
 C          18.202       7.344      -0.129
 C          11.601       6.218      -0.191
 C          12.379       7.413      -0.173
 C          13.812       7.447      -0.252
 C          14.604       8.674      -0.158
 C          16.008       8.656      -0.139
 C           9.437       4.989      -0.332
 C          10.144       6.180      -0.264
 C          13.645      -7.618      -0.287
 C          12.158      -7.611      -0.223
 C          11.419      -8.874      -0.164
 C           9.964      -8.873       0.032
 C          11.503      -1.383      -0.341
 C           9.261     -10.140       0.174
 C          15.817      -8.911      -0.066
 C          14.342      -8.895      -0.103
 C          15.914      -1.448      -0.640
 C          13.608     -10.170      -0.147
 C          14.461      -1.432      -0.674
 C          12.136     -10.152      -0.109
 C          13.688      -2.640      -0.700
 C          11.590       3.682      -0.361
 C          11.386     -11.417       0.127
 C          12.225      -2.640      -0.467
 C          10.109       3.685      -0.296
 C           9.906     -11.380       0.208
 C          11.504      -3.869      -0.302
 C           9.425       2.464      -0.250
 C           9.200     -12.648       0.276
 C          20.306      -1.467       0.004
 C          17.995     -10.225      -0.004
 C          18.860      -1.475      -0.175
 C          16.524     -10.211      -0.080
 C          18.115      -2.713      -0.326
 C          15.999       3.630      -0.648
 C          15.797     -11.489      -0.176
 C          16.664      -2.671      -0.642
 C          14.506       3.648      -0.660
 C          14.308     -11.476      -0.199
 C          13.778       2.375      -0.530
 C          13.551     -12.715       0.020
 C          15.897      -3.931      -0.687
 C          14.425      -3.914      -0.717
 C          12.314       2.394      -0.510
 C          12.083     -12.689       0.272
 C          13.659      -5.165      -0.620
 C          11.554       1.136      -0.493
 C          11.339     -13.942       0.438
 C          12.199      -5.122      -0.377
 C          10.101       1.181      -0.289
 C           9.873     -13.852       0.406
 C          20.974      -2.735       0.152
 C          18.704     -11.510       0.242
 C          20.270      -3.975       0.044
 C          18.151       2.325      -0.432
 C          17.968     -12.767       0.352
 C          18.796      -3.955      -0.130
 C          16.690       2.341      -0.486
 C          16.512     -12.754       0.041
 C          18.070      -5.187      -0.230
 C          15.950       1.065      -0.396
 C          15.759     -14.011       0.159
 C          16.619      -5.203      -0.559
 C          14.476       1.083      -0.420
 C          14.278     -13.995       0.147
 C          15.848      -6.408      -0.477
 C          13.742      -0.171      -0.527
 C          13.514     -15.215       0.412
 C          14.392      -6.393      -0.505
 C          12.258      -0.141      -0.468
 C          12.082     -15.151       0.504
 C          20.940      -5.224       0.259
 C          18.880       1.047      -0.358
 C          18.684     -14.040       0.527
 C          20.236      -6.477       0.191
 C          18.145      -0.217      -0.341
 C          17.908     -15.227       0.576
 C          18.788      -6.438       0.001
 C          16.656      -0.204      -0.473
 C          16.477     -15.259       0.441
 C          18.040      -7.687      -0.097
 C          15.681     -16.466       0.575
 C          16.561      -7.664      -0.215
 C          14.276     -16.448       0.577
 C          20.901      -7.757       0.378
 C          20.185      -8.996       0.238
 C          18.744      -8.964      -0.012
 C          20.860     -10.286       0.384
 C          20.183     -11.512       0.370
 C          11.445      -6.350      -0.180
 C          21.031       2.326      -0.066
 C          20.853     -12.796       0.424
 C          20.323       1.051      -0.122
 C          20.148     -13.984       0.524
 C          21.000      -0.207       0.088
 C           9.983      -6.349      -0.037
 C          10.016      -3.847      -0.191
 C          10.048      -1.341      -0.205
 C           9.342      -2.592      -0.098
 C           9.313      -5.083      -0.010
 C           9.286      -7.608       0.123
 C           9.391      -0.059      -0.121
