   142
 frame    494
 H          22.172       4.851      -0.067
 H          20.938       7.032      -0.099
 H          18.753       8.311      -0.074
 H          14.063       9.635      -0.055
 H          16.571       9.603      -0.037
 H           9.637       7.173      -0.196
 H           8.348       5.026      -0.217
 H          11.850       8.399      -0.126
 H           8.142     -10.125       0.251
 H           8.313       2.496      -0.186
 H           8.113     -12.652       0.384
 H           9.346     -14.828       0.525
 H          11.529     -16.106       0.629
 H          16.217     -17.428       0.736
 H          13.711     -17.396       0.717
 H          20.647     -14.970       0.637
 H          22.082      -2.727       0.249
 H          22.049      -5.248       0.355
 H          22.011      -7.770       0.426
 H          21.972     -10.296       0.489
 H          22.143       2.322       0.013
 H          21.936     -12.823       0.564
 H          18.431     -16.193       0.686
 H          22.114      -0.204       0.122
 H           8.238      -2.554      -0.062
 H           8.203      -5.077       0.031
 H           8.170      -7.600       0.134
 H           8.273      -0.032      -0.137
 C          18.882       3.560      -0.297
 C          20.370       3.560      -0.067
 C          21.056       4.869      -0.088
 C          16.715       4.896      -0.241
 C          18.172       4.845      -0.269
 C          18.894       6.125      -0.277
 C          20.363       6.073      -0.234
 C          12.352       4.915      -0.332
 C          13.812       4.934      -0.270
 C          14.544       6.173      -0.228
 C          16.007       6.159      -0.220
 C          16.762       7.415      -0.253
 C          18.197       7.363      -0.221
 C          11.664       6.213      -0.347
 C          12.386       7.434      -0.278
 C          13.819       7.447      -0.284
 C          14.600       8.660      -0.166
 C          16.008       8.646      -0.162
 C           9.455       5.026      -0.209
 C          10.187       6.208      -0.316
 C          13.593      -7.652      -0.228
 C          12.146      -7.658       0.063
 C          11.420      -8.914       0.086
 C           9.945      -8.874       0.161
 C          11.534      -1.332      -0.068
 C           9.233     -10.115       0.313
 C          15.832      -8.946      -0.345
 C          14.332      -8.923      -0.367
 C          15.930      -1.443      -0.372
 C          13.617     -10.211      -0.217
 C          14.434      -1.426      -0.403
 C          12.160     -10.150      -0.095
 C          13.701      -2.636       0.004
 C          11.605       3.653      -0.403
 C          11.400     -11.374       0.099
 C          12.220      -2.605      -0.063
 C          10.120       3.684      -0.197
 C           9.913     -11.356       0.325
 C          11.445      -3.859       0.049
 C           9.408       2.462      -0.145
 C           9.221     -12.678       0.395
 C          20.326      -1.448       0.064
 C          17.965     -10.217      -0.006
 C          18.820      -1.433       0.063
 C          16.519     -10.240      -0.156
 C          18.099      -2.676       0.054
 C          15.970       3.638      -0.370
 C          15.776     -11.487       0.111
 C          16.616      -2.666       0.064
 C          14.518       3.659      -0.386
 C          14.316     -11.459       0.090
 C          13.785       2.399      -0.622
 C          13.577     -12.705       0.279
 C          15.879      -3.915       0.256
 C          14.406      -3.895       0.226
 C          12.331       2.390      -0.507
 C          12.115     -12.648       0.234
 C          13.668      -5.147       0.079
 C          11.562       1.185      -0.244
 C          11.392     -13.928       0.286
 C          12.186      -5.134       0.018
 C          10.086       1.195      -0.174
 C           9.923     -13.879       0.340
 C          20.995      -2.704       0.209
 C          18.688     -11.463       0.204
 C          20.288      -3.959       0.302
 C          18.125       2.315      -0.409
 C          17.945     -12.722       0.300
 C          18.840      -3.947       0.182
 C          16.678       2.361      -0.571
 C          16.486     -12.739       0.303
 C          18.068      -5.203       0.120
 C          15.965       1.077      -0.661
 C          15.741     -13.974       0.380
 C          16.581      -5.184       0.124
 C          14.466       1.092      -0.697
 C          14.286     -13.958       0.361
 C          15.867      -6.415      -0.251
 C          13.705      -0.154      -0.459
 C          13.524     -15.209       0.403
 C          14.364      -6.391      -0.281
 C          12.261      -0.086      -0.177
 C          12.089     -15.157       0.419
 C          20.951      -5.236       0.295
 C          18.861       1.089      -0.134
 C          18.635     -14.019       0.365
 C          20.261      -6.487       0.233
 C          18.134      -0.166      -0.075
 C          17.908     -15.230       0.479
 C          18.761      -6.474       0.238
 C          16.693      -0.189      -0.391
 C          16.461     -15.248       0.423
 C          18.041      -7.732       0.174
 C          15.679     -16.454       0.591
 C          16.601      -7.690      -0.167
 C          14.271     -16.436       0.576
 C          20.929      -7.781       0.270
 C          20.202      -8.997       0.347
 C          18.731      -8.994       0.203
 C          20.877     -10.260       0.503
 C          20.176     -11.481       0.468
 C          11.454      -6.383       0.085
 C          21.041       2.311       0.040
 C          20.823     -12.822       0.532
 C          20.337       1.069      -0.012
 C          20.096     -14.009       0.453
 C          21.026      -0.176      -0.021
 C           9.967      -6.360       0.007
 C           9.999      -3.832       0.081
 C          10.035      -1.315      -0.160
 C           9.330      -2.562      -0.055
 C           9.302      -5.095       0.031
 C           9.264      -7.641       0.019
 C           9.364      -0.019      -0.239
