   142
 frame    521
 H          22.172       4.851      -0.067
 H          20.938       7.032      -0.099
 H          18.753       8.311      -0.074
 H          14.063       9.635      -0.055
 H          16.571       9.603      -0.037
 H           9.637       7.173      -0.196
 H           8.348       5.026      -0.217
 H          11.850       8.399      -0.126
 H           8.142     -10.125       0.251
 H           8.313       2.496      -0.186
 H           8.113     -12.652       0.384
 H           9.346     -14.828       0.525
 H          11.529     -16.106       0.629
 H          16.217     -17.428       0.736
 H          13.711     -17.396       0.717
 H          20.647     -14.970       0.637
 H          22.082      -2.727       0.249
 H          22.049      -5.248       0.355
 H          22.011      -7.770       0.426
 H          21.972     -10.296       0.489
 H          22.143       2.322       0.013
 H          21.936     -12.823       0.564
 H          18.431     -16.193       0.686
 H          22.114      -0.204       0.122
 H           8.238      -2.554      -0.062
 H           8.203      -5.077       0.031
 H           8.170      -7.600       0.134
 H           8.273      -0.032      -0.137
 C          18.852       3.612       0.044
 C          20.331       3.594       0.058
 C          21.061       4.869      -0.025
 C          16.715       4.833      -0.245
 C          18.170       4.866      -0.175
 C          18.910       6.138      -0.230
 C          20.381       6.072      -0.097
 C          12.348       4.939      -0.244
 C          13.801       4.871      -0.286
 C          14.548       6.120      -0.235
 C          15.998       6.100      -0.226
 C          16.759       7.390      -0.227
 C          18.208       7.369      -0.278
 C          11.643       6.228      -0.301
 C          12.378       7.446      -0.312
 C          13.827       7.427      -0.247
 C          14.605       8.673      -0.191
 C          16.011       8.653      -0.179
 C           9.462       5.012      -0.171
 C          10.160       6.203      -0.220
 C          13.681      -7.637      -0.135
 C          12.221      -7.627      -0.120
 C          11.459      -8.874       0.085
 C           9.987      -8.851       0.191
 C          11.573      -1.363      -0.148
 C           9.284     -10.140       0.283
 C          15.824      -8.929      -0.193
 C          14.343      -8.918      -0.225
 C          15.900      -1.408      -0.073
 C          13.579     -10.117       0.026
 C          14.465      -1.387      -0.103
 C          12.161     -10.131       0.248
 C          13.726      -2.632      -0.003
 C          11.637       3.691      -0.040
 C          11.440     -11.400       0.460
 C          12.280      -2.613      -0.033
 C          10.156       3.704      -0.086
 C           9.959     -11.378       0.428
 C          11.510      -3.862      -0.041
 C           9.447       2.480      -0.128
 C           9.221     -12.665       0.420
 C          20.289      -1.470       0.087
 C          17.956     -10.207       0.340
 C          18.779      -1.442      -0.008
 C          16.553     -10.156       0.068
 C          18.046      -2.681       0.070
 C          15.980       3.555      -0.389
 C          15.783     -11.394       0.102
 C          16.604      -2.666       0.027
 C          14.513       3.580      -0.408
 C          14.308     -11.379       0.082
 C          13.751       2.337      -0.383
 C          13.569     -12.641       0.277
 C          15.870      -3.920      -0.006
 C          14.420      -3.905      -0.020
 C          12.327       2.397      -0.177
 C          12.108     -12.677       0.323
 C          13.689      -5.150       0.059
 C          11.594       1.157      -0.250
 C          11.366     -13.941       0.350
 C          12.241      -5.126       0.033
 C          10.125       1.179      -0.157
 C           9.891     -13.871       0.447
 C          20.968      -2.737       0.083
 C          18.637     -11.503       0.555
 C          20.238      -3.982      -0.023
 C          18.136       2.324      -0.096
 C          17.935     -12.749       0.394
 C          18.783      -3.946       0.105
 C          16.720       2.301      -0.343
 C          16.478     -12.677       0.317
 C          18.008      -5.200       0.147
 C          15.965       1.086      -0.506
 C          15.729     -13.928       0.399
 C          16.568      -5.190       0.096
 C          14.473       1.104      -0.529
 C          14.286     -13.911       0.391
 C          15.830      -6.423       0.081
 C          13.773      -0.154      -0.355
 C          13.535     -15.202       0.434
 C          14.395      -6.407       0.061
 C          12.312      -0.125      -0.349
 C          12.082     -15.172       0.375
 C          20.933      -5.228       0.184
 C          18.832       1.068      -0.127
 C          18.651     -14.029       0.430
 C          20.220      -6.470       0.276
 C          18.084      -0.195      -0.236
 C          17.915     -15.242       0.425
 C          18.713      -6.454       0.140
 C          16.632      -0.187      -0.320
 C          16.455     -15.238       0.460
 C          17.980      -7.703      -0.015
 C          15.678     -16.487       0.544
 C          16.525      -7.674      -0.094
 C          14.274     -16.467       0.538
 C          20.898      -7.749       0.421
 C          20.161      -8.979       0.385
 C          18.699      -8.966       0.216
 C          20.837     -10.284       0.479
 C          20.130     -11.512       0.571
 C          11.507      -6.361       0.012
 C          21.004       2.343       0.020
 C          20.822     -12.808       0.569
 C          20.297       1.061       0.014
 C          20.124     -13.997       0.551
 C          20.997      -0.188       0.138
 C           9.999      -6.335       0.054
 C          10.064      -3.856      -0.252
 C          10.063      -1.347      -0.115
 C           9.355      -2.603      -0.164
 C           9.327      -5.081      -0.078
 C           9.289      -7.601       0.189
 C           9.392      -0.048      -0.081
