   142
 frame    464
 H          22.172       4.851      -0.067
 H          20.938       7.032      -0.099
 H          18.753       8.311      -0.074
 H          14.063       9.635      -0.055
 H          16.571       9.603      -0.037
 H           9.637       7.173      -0.196
 H           8.348       5.026      -0.217
 H          11.850       8.399      -0.126
 H           8.142     -10.125       0.251
 H           8.313       2.496      -0.186
 H           8.113     -12.652       0.384
 H           9.346     -14.828       0.525
 H          11.529     -16.106       0.629
 H          16.217     -17.428       0.736
 H          13.711     -17.396       0.717
 H          20.647     -14.970       0.637
 H          22.082      -2.727       0.249
 H          22.049      -5.248       0.355
 H          22.011      -7.770       0.426
 H          21.972     -10.296       0.489
 H          22.143       2.322       0.013
 H          21.936     -12.823       0.564
 H          18.431     -16.193       0.686
 H          22.114      -0.204       0.122
 H           8.238      -2.554      -0.062
 H           8.203      -5.077       0.031
 H           8.170      -7.600       0.134
 H           8.273      -0.032      -0.137
 C          18.892       3.623      -0.503
 C          20.401       3.582      -0.436
 C          21.106       4.883      -0.257
 C          16.712       4.886      -0.529
 C          18.181       4.891      -0.437
 C          18.929       6.129      -0.160
 C          20.393       6.064      -0.095
 C          12.348       4.977      -0.502
 C          13.818       4.927      -0.569
 C          14.543       6.163      -0.352
 C          16.004       6.137      -0.326
 C          16.760       7.362      -0.093
 C          18.190       7.352      -0.045
 C          11.625       6.226      -0.226
 C          12.394       7.431      -0.091
 C          13.819       7.405      -0.117
 C          14.610       8.631      -0.083
 C          16.005       8.613      -0.059
 C           9.417       5.036      -0.379
 C          10.153       6.194      -0.185
 C          13.646      -7.659      -0.248
 C          12.182      -7.657      -0.223
 C          11.444      -8.897      -0.188
 C           9.975      -8.892       0.019
 C          11.573      -1.333      -0.190
 C           9.233     -10.147       0.045
 C          15.822      -8.957      -0.173
 C          14.354      -8.944      -0.199
 C          15.906      -1.404      -0.196
 C          13.591     -10.203      -0.170
 C          14.446      -1.384      -0.218
 C          12.125     -10.178      -0.114
 C          13.722      -2.634      -0.143
 C          11.612       3.724      -0.603
 C          11.409     -11.457      -0.094
 C          12.262      -2.610       0.043
 C          10.098       3.715      -0.556
 C           9.898     -11.412      -0.053
 C          11.524      -3.857       0.163
 C           9.401       2.471      -0.388
 C           9.195     -12.700       0.223
 C          20.251      -1.432       0.176
 C          18.006     -10.246      -0.025
 C          18.780      -1.425      -0.039
 C          16.542     -10.243      -0.139
 C          18.045      -2.681       0.155
 C          15.985       3.616      -0.586
 C          15.787     -11.468      -0.140
 C          16.595      -2.673      -0.079
 C          14.514       3.636      -0.618
 C          14.315     -11.453      -0.159
 C          13.753       2.409      -0.567
 C          13.585     -12.732      -0.039
 C          15.862      -3.913      -0.109
 C          14.429      -3.894      -0.139
 C          12.294       2.427      -0.518
 C          12.124     -12.729       0.051
 C          13.693      -5.136      -0.079
 C          11.570       1.162      -0.516
 C          11.366     -13.946       0.417
 C          12.231      -5.127       0.109
 C          10.097       1.198      -0.333
 C           9.897     -13.872       0.478
 C          20.950      -2.707       0.347
 C          18.687     -11.544      -0.002
 C          20.222      -3.957       0.426
 C          18.170       2.353      -0.433
 C          17.941     -12.799       0.125
 C          18.744      -3.950       0.328
 C          16.705       2.371      -0.516
 C          16.479     -12.764       0.002
 C          18.006      -5.195       0.236
 C          15.948       1.106      -0.489
 C          15.741     -13.980       0.283
 C          16.550      -5.164      -0.009
 C          14.484       1.126      -0.503
 C          14.279     -13.965       0.264
 C          15.841      -6.428      -0.040
 C          13.739      -0.135      -0.481
 C          13.523     -15.172       0.553
 C          14.386      -6.412      -0.064
 C          12.283      -0.094      -0.466
 C          12.093     -15.160       0.613
 C          20.910      -5.232       0.446
 C          18.863       1.073      -0.373
 C          18.659     -14.038       0.483
 C          20.179      -6.499       0.357
 C          18.110      -0.170      -0.353
 C          17.896     -15.226       0.658
 C          18.719      -6.486       0.115
 C          16.653      -0.175      -0.427
 C          16.466     -15.200       0.582
 C          18.015      -7.728      -0.116
 C          15.678     -16.428       0.659
 C          16.555      -7.692      -0.190
 C          14.278     -16.411       0.648
 C          20.889      -7.778       0.405
 C          20.182      -9.013       0.201
 C          18.716      -8.984      -0.035
 C          20.891     -10.291       0.237
 C          20.192     -11.535       0.099
 C          11.501      -6.392      -0.030
 C          21.062       2.332      -0.223
 C          20.857     -12.845       0.381
 C          20.325       1.070      -0.148
 C          20.118     -13.998       0.591
 C          20.994      -0.180       0.136
 C          10.029      -6.375       0.154
 C          10.048      -3.834       0.210
 C          10.096      -1.307      -0.008
 C           9.364      -2.561       0.108
 C           9.331      -5.087       0.187
 C           9.290      -7.630       0.176
 C           9.385      -0.036      -0.074
