   142
 frame    594
 H          22.172       4.851      -0.067
 H          20.938       7.032      -0.099
 H          18.753       8.311      -0.074
 H          14.063       9.635      -0.055
 H          16.571       9.603      -0.037
 H           9.637       7.173      -0.196
 H           8.348       5.026      -0.217
 H          11.850       8.399      -0.126
 H           8.142     -10.125       0.251
 H           8.313       2.496      -0.186
 H           8.113     -12.652       0.384
 H           9.346     -14.828       0.525
 H          11.529     -16.106       0.629
 H          16.217     -17.428       0.736
 H          13.711     -17.396       0.717
 H          20.647     -14.970       0.637
 H          22.082      -2.727       0.249
 H          22.049      -5.248       0.355
 H          22.011      -7.770       0.426
 H          21.972     -10.296       0.489
 H          22.143       2.322       0.013
 H          21.936     -12.823       0.564
 H          18.431     -16.193       0.686
 H          22.114      -0.204       0.122
 H           8.238      -2.554      -0.062
 H           8.203      -5.077       0.031
 H           8.170      -7.600       0.134
 H           8.273      -0.032      -0.137
 C          18.867       3.567       0.048
 C          20.344       3.569      -0.006
 C          21.058       4.886       0.043
 C          16.714       4.864       0.044
 C          18.180       4.839      -0.067
 C          18.873       6.123      -0.123
 C          20.355       6.076      -0.072
 C          12.340       4.912      -0.136
 C          13.789       4.902       0.002
 C          14.552       6.151       0.033
 C          15.995       6.140       0.072
 C          16.709       7.406      -0.102
 C          18.151       7.362      -0.174
 C          11.686       6.215      -0.181
 C          12.429       7.439      -0.219
 C          13.869       7.445      -0.133
 C          14.616       8.690      -0.164
 C          16.000       8.672      -0.148
 C           9.459       5.027      -0.096
 C          10.200       6.206      -0.164
 C          13.644      -7.652       0.374
 C          12.179      -7.648       0.225
 C          11.451      -8.887       0.316
 C           9.990      -8.890       0.129
 C          11.555      -1.315      -0.128
 C           9.252     -10.157       0.208
 C          15.805      -8.955       0.608
 C          14.330      -8.938       0.583
 C          15.898      -1.419       0.086
 C          13.607     -10.154       0.566
 C          14.452      -1.400       0.070
 C          12.169     -10.123       0.514
 C          13.733      -2.628      -0.262
 C          11.614       3.658      -0.040
 C          11.414     -11.353       0.453
 C          12.258      -2.611      -0.160
 C          10.140       3.701      -0.120
 C           9.943     -11.367       0.373
 C          11.502      -3.874      -0.280
 C           9.417       2.498      -0.213
 C           9.225     -12.667       0.515
 C          20.289      -1.458       0.065
 C          17.940     -10.199       0.606
 C          18.800      -1.415       0.002
 C          16.503     -10.188       0.608
 C          18.066      -2.681      -0.047
 C          15.968       3.618       0.105
 C          15.768     -11.425       0.599
 C          16.596      -2.675      -0.212
 C          14.509       3.629       0.083
 C          14.314     -11.407       0.569
 C          13.769       2.398       0.142
 C          13.570     -12.650       0.568
 C          15.882      -3.930      -0.464
 C          14.421      -3.916      -0.499
 C          12.330       2.413       0.101
 C          12.112     -12.625       0.428
 C          13.704      -5.153      -0.159
 C          11.586       1.185      -0.023
 C          11.418     -13.915       0.456
 C          12.229      -5.140      -0.069
 C          10.124       1.217      -0.199
 C           9.924     -13.866       0.485
 C          20.984      -2.720       0.020
 C          18.667     -11.441       0.558
 C          20.266      -3.975      -0.036
 C          18.115       2.340       0.183
 C          17.946     -12.694       0.507
 C          18.791      -3.962      -0.130
 C          16.677       2.357       0.181
 C          16.483     -12.682       0.605
 C          18.029      -5.211       0.040
 C          15.947       1.158       0.250
 C          15.725     -13.932       0.705
 C          16.555      -5.190      -0.100
 C          14.462       1.171       0.227
 C          14.293     -13.913       0.695
 C          15.835      -6.403       0.271
 C          13.742      -0.103       0.111
 C          13.580     -15.191       0.584
 C          14.384      -6.382       0.237
 C          12.281      -0.081      -0.042
 C          12.137     -15.156       0.503
 C          20.958      -5.227       0.137
 C          18.827       1.099       0.095
 C          18.611     -14.002       0.547
 C          20.233      -6.470       0.262
 C          18.110      -0.159       0.060
 C          17.849     -15.221       0.560
 C          18.738      -6.489       0.180
 C          16.641      -0.148       0.162
 C          16.412     -15.229       0.614
 C          18.012      -7.723       0.340
 C          15.673     -16.488       0.620
 C          16.538      -7.693       0.425
 C          14.289     -16.466       0.612
 C          20.897      -7.756       0.321
 C          20.155      -9.009       0.310
 C          18.693      -8.975       0.440
 C          20.868     -10.298       0.401
 C          20.147     -11.502       0.528
 C          11.484      -6.400       0.038
 C          21.045       2.351      -0.056
 C          20.823     -12.821       0.671
 C          20.299       1.090      -0.043
 C          20.090     -14.001       0.618
 C          20.996      -0.181       0.033
 C           9.992      -6.340       0.061
 C          10.028      -3.849      -0.249
 C          10.073      -1.329      -0.123
 C           9.349      -2.573      -0.210
 C           9.306      -5.085      -0.122
 C           9.286      -7.613       0.088
 C           9.396      -0.042      -0.176
