   142
 frame    369
 H          22.172       4.851      -0.067
 H          20.938       7.032      -0.099
 H          18.753       8.311      -0.074
 H          14.063       9.635      -0.055
 H          16.571       9.603      -0.037
 H           9.637       7.173      -0.196
 H           8.348       5.026      -0.217
 H          11.850       8.399      -0.126
 H           8.142     -10.125       0.251
 H           8.313       2.496      -0.186
 H           8.113     -12.652       0.384
 H           9.346     -14.828       0.525
 H          11.529     -16.106       0.629
 H          16.217     -17.428       0.736
 H          13.711     -17.396       0.717
 H          20.647     -14.970       0.637
 H          22.082      -2.727       0.249
 H          22.049      -5.248       0.355
 H          22.011      -7.770       0.426
 H          21.972     -10.296       0.489
 H          22.143       2.322       0.013
 H          21.936     -12.823       0.564
 H          18.431     -16.193       0.686
 H          22.114      -0.204       0.122
 H           8.238      -2.554      -0.062
 H           8.203      -5.077       0.031
 H           8.170      -7.600       0.134
 H           8.273      -0.032      -0.137
 C          18.872       3.604      -0.361
 C          20.351       3.583      -0.310
 C          21.068       4.871      -0.298
 C          16.695       4.906      -0.655
 C          18.169       4.865      -0.463
 C          18.919       6.147      -0.405
 C          20.383       6.093      -0.330
 C          12.363       4.936      -0.523
 C          13.838       4.940      -0.701
 C          14.561       6.225      -0.791
 C          16.003       6.206      -0.767
 C          16.751       7.440      -0.500
 C          18.173       7.384      -0.308
 C          11.650       6.233      -0.490
 C          12.412       7.455      -0.352
 C          13.835       7.483      -0.529
 C          14.606       8.695      -0.325
 C          16.004       8.679      -0.321
 C           9.458       5.026      -0.428
 C          10.174       6.223      -0.426
 C          13.659      -7.699      -0.346
 C          12.173      -7.690      -0.398
 C          11.439      -8.918      -0.106
 C           9.981      -8.863       0.098
 C          11.532      -1.349      -0.471
 C           9.263     -10.133       0.117
 C          15.813      -9.017      -0.166
 C          14.353      -8.994      -0.195
 C          15.918      -1.405      -0.331
 C          13.611     -10.248      -0.198
 C          14.447      -1.390      -0.358
 C          12.153     -10.186      -0.084
 C          13.668      -2.613      -0.132
 C          11.623       3.693      -0.459
 C          11.418     -11.437       0.002
 C          12.210      -2.631      -0.367
 C          10.147       3.715      -0.434
 C           9.934     -11.412       0.040
 C          11.442      -3.874      -0.364
 C           9.440       2.464      -0.277
 C           9.220     -12.702       0.165
 C          20.302      -1.474      -0.057
 C          17.981     -10.261       0.020
 C          18.833      -1.440      -0.318
 C          16.527     -10.284      -0.130
 C          18.114      -2.705      -0.228
 C          15.978       3.652      -0.647
 C          15.777     -11.515      -0.193
 C          16.656      -2.646      -0.083
 C          14.529       3.666      -0.677
 C          14.334     -11.494      -0.221
 C          13.772       2.452      -0.583
 C          13.604     -12.752      -0.178
 C          15.905      -3.907       0.102
 C          14.382      -3.887       0.072
 C          12.320       2.427      -0.465
 C          12.131     -12.702      -0.001
 C          13.632      -5.154      -0.053
 C          11.565       1.187      -0.435
 C          11.374     -13.968       0.139
 C          12.187      -5.128      -0.294
 C          10.110       1.177      -0.236
 C           9.903     -13.918       0.217
 C          21.024      -2.726      -0.037
 C          18.681     -11.531       0.115
 C          20.367      -3.984      -0.217
 C          18.147       2.355      -0.377
 C          17.933     -12.775       0.084
 C          18.857      -3.969      -0.185
 C          16.696       2.411      -0.539
 C          16.470     -12.787      -0.137
 C          18.078      -5.203      -0.145
 C          15.949       1.162      -0.497
 C          15.732     -14.064      -0.155
 C          16.619      -5.192       0.001
 C          14.487       1.179      -0.515
 C          14.303     -14.046      -0.166
 C          15.853      -6.431      -0.178
 C          13.755      -0.097      -0.582
 C          13.545     -15.268       0.146
 C          14.387      -6.404      -0.208
 C          12.261      -0.076      -0.654
 C          12.111     -15.191       0.329
 C          20.992      -5.245       0.074
 C          18.862       1.096      -0.301
 C          18.655     -14.064       0.221
 C          20.227      -6.471       0.142
 C          18.135      -0.151      -0.528
 C          17.876     -15.261       0.397
 C          18.764      -6.484      -0.142
 C          16.648      -0.131      -0.537
 C          16.449     -15.304       0.168
 C          18.034      -7.764      -0.281
 C          15.675     -16.507       0.425
 C          16.546      -7.735      -0.290
 C          14.279     -16.490       0.406
 C          20.874      -7.748       0.426
 C          20.172      -8.990       0.293
 C          18.713      -9.003       0.038
 C          20.855     -10.281       0.332
 C          20.161     -11.538       0.196
 C          11.468      -6.392      -0.311
 C          21.016       2.319      -0.113
 C          20.832     -12.838       0.299
 C          20.303       1.049      -0.049
 C          20.121     -14.044       0.324
 C          20.980      -0.204       0.136
 C           9.996      -6.342      -0.094
 C           9.944      -3.857      -0.471
 C          10.061      -1.349      -0.272
 C           9.304      -2.586      -0.297
 C           9.270      -5.097      -0.197
 C           9.300      -7.595       0.182
 C           9.399      -0.065      -0.078
