   142
 frame    295
 H          22.172       4.851      -0.067
 H          20.938       7.032      -0.099
 H          18.753       8.311      -0.074
 H          14.063       9.635      -0.055
 H          16.571       9.603      -0.037
 H           9.637       7.173      -0.196
 H           8.348       5.026      -0.217
 H          11.850       8.399      -0.126
 H           8.142     -10.125       0.251
 H           8.313       2.496      -0.186
 H           8.113     -12.652       0.384
 H           9.346     -14.828       0.525
 H          11.529     -16.106       0.629
 H          16.217     -17.428       0.736
 H          13.711     -17.396       0.717
 H          20.647     -14.970       0.637
 H          22.082      -2.727       0.249
 H          22.049      -5.248       0.355
 H          22.011      -7.770       0.426
 H          21.972     -10.296       0.489
 H          22.143       2.322       0.013
 H          21.936     -12.823       0.564
 H          18.431     -16.193       0.686
 H          22.114      -0.204       0.122
 H           8.238      -2.554      -0.062
 H           8.203      -5.077       0.031
 H           8.170      -7.600       0.134
 H           8.273      -0.032      -0.137
 C          18.898       3.593      -0.268
 C          20.387       3.559      -0.142
 C          21.069       4.841      -0.141
 C          16.747       4.882      -0.511
 C          18.204       4.869      -0.249
 C          18.942       6.136      -0.134
 C          20.396       6.056      -0.127
 C          12.316       4.946      -0.317
 C          13.780       4.922      -0.550
 C          14.548       6.180      -0.457
 C          16.016       6.160      -0.449
 C          16.774       7.419      -0.262
 C          18.202       7.353      -0.133
 C          11.605       6.225      -0.202
 C          12.380       7.422      -0.179
 C          13.812       7.445      -0.269
 C          14.603       8.676      -0.196
 C          16.010       8.661      -0.174
 C           9.449       4.983      -0.278
 C          10.154       6.181      -0.234
 C          13.645      -7.619      -0.269
 C          12.164      -7.620      -0.213
 C          11.422      -8.884      -0.156
 C           9.961      -8.870       0.029
 C          11.500      -1.375      -0.365
 C           9.247     -10.134       0.161
 C          15.815      -8.923      -0.075
 C          14.343      -8.908      -0.112
 C          15.917      -1.458      -0.602
 C          13.599     -10.175      -0.165
 C          14.454      -1.442      -0.634
 C          12.130     -10.152      -0.093
 C          13.697      -2.655      -0.699
 C          11.591       3.680      -0.361
 C          11.387     -11.412       0.127
 C          12.232      -2.640      -0.439
 C          10.107       3.681      -0.278
 C           9.905     -11.371       0.227
 C          11.497      -3.866      -0.305
 C           9.412       2.458      -0.260
 C           9.209     -12.642       0.328
 C          20.313      -1.466      -0.007
 C          17.999     -10.224       0.013
 C          18.868      -1.467      -0.195
 C          16.530     -10.215      -0.099
 C          18.105      -2.713      -0.302
 C          16.011       3.622      -0.675
 C          15.805     -11.486      -0.206
 C          16.655      -2.686      -0.637
 C          14.496       3.639      -0.691
 C          14.301     -11.469      -0.231
 C          13.767       2.378      -0.547
 C          13.554     -12.717       0.007
 C          15.889      -3.931      -0.724
 C          14.436      -3.914      -0.751
 C          12.306       2.396      -0.493
 C          12.091     -12.689       0.233
 C          13.669      -5.152      -0.615
 C          11.560       1.140      -0.488
 C          11.345     -13.946       0.416
 C          12.206      -5.125      -0.351
 C          10.101       1.179      -0.290
 C           9.878     -13.850       0.440
 C          20.972      -2.731       0.136
 C          18.702     -11.508       0.240
 C          20.275      -3.974       0.051
 C          18.159       2.325      -0.416
 C          17.959     -12.767       0.313
 C          18.807      -3.955      -0.130
 C          16.698       2.344      -0.503
 C          16.509     -12.757       0.026
 C          18.061      -5.191      -0.207
 C          15.947       1.074      -0.409
 C          15.752     -14.003       0.150
 C          16.612      -5.188      -0.553
 C          14.478       1.089      -0.428
 C          14.284     -13.986       0.140
 C          15.850      -6.397      -0.441
 C          13.743      -0.168      -0.506
 C          13.519     -15.219       0.400
 C          14.385      -6.379      -0.465
 C          12.264      -0.137      -0.457
 C          12.088     -15.159       0.499
 C          20.939      -5.229       0.243
 C          18.873       1.054      -0.348
 C          18.678     -14.042       0.509
 C          20.240      -6.481       0.178
 C          18.135      -0.210      -0.332
 C          17.902     -15.236       0.568
 C          18.797      -6.451      -0.019
 C          16.655      -0.206      -0.451
 C          16.469     -15.262       0.426
 C          18.032      -7.694      -0.086
 C          15.682     -16.475       0.536
 C          16.556      -7.661      -0.195
 C          14.275     -16.457       0.539
 C          20.898      -7.763       0.344
 C          20.190      -8.995       0.237
 C          18.741      -8.972      -0.004
 C          20.872     -10.276       0.372
 C          20.188     -11.503       0.391
 C          11.437      -6.362      -0.203
 C          21.043       2.319      -0.078
 C          20.843     -12.788       0.478
 C          20.322       1.049      -0.124
 C          20.145     -13.983       0.556
 C          20.996      -0.200       0.057
 C           9.979      -6.352      -0.048
 C          10.013      -3.848      -0.182
 C          10.045      -1.337      -0.213
 C           9.343      -2.589      -0.115
 C           9.317      -5.088      -0.026
 C           9.290      -7.614       0.092
 C           9.393      -0.052      -0.151
