   142
 frame    878
 H          22.172       4.851      -0.067
 H          20.938       7.032      -0.099
 H          18.753       8.311      -0.074
 H          14.063       9.635      -0.055
 H          16.571       9.603      -0.037
 H           9.637       7.173      -0.196
 H           8.348       5.026      -0.217
 H          11.850       8.399      -0.126
 H           8.142     -10.125       0.251
 H           8.313       2.496      -0.186
 H           8.113     -12.652       0.384
 H           9.346     -14.828       0.525
 H          11.529     -16.106       0.629
 H          16.217     -17.428       0.736
 H          13.711     -17.396       0.717
 H          20.647     -14.970       0.637
 H          22.082      -2.727       0.249
 H          22.049      -5.248       0.355
 H          22.011      -7.770       0.426
 H          21.972     -10.296       0.489
 H          22.143       2.322       0.013
 H          21.936     -12.823       0.564
 H          18.431     -16.193       0.686
 H          22.114      -0.204       0.122
 H           8.238      -2.554      -0.062
 H           8.203      -5.077       0.031
 H           8.170      -7.600       0.134
 H           8.273      -0.032      -0.137
 C          18.905       3.598       0.255
 C          20.362       3.538       0.173
 C          21.056       4.850       0.042
 C          16.718       4.896       0.049
 C          18.186       4.851       0.012
 C          18.912       6.108      -0.194
 C          20.384       6.062      -0.129
 C          12.321       4.924      -0.068
 C          13.797       4.926       0.009
 C          14.534       6.155      -0.151
 C          16.013       6.148      -0.125
 C          16.794       7.402      -0.145
 C          18.212       7.357      -0.181
 C          11.638       6.203      -0.262
 C          12.375       7.433      -0.236
 C          13.786       7.436      -0.168
 C          14.614       8.690      -0.199
 C          16.007       8.668      -0.181
 C           9.458       4.997      -0.084
 C          10.166       6.187      -0.230
 C          13.633      -7.637       0.848
 C          12.152      -7.634       0.770
 C          11.364      -8.878       0.742
 C           9.925      -8.841       0.595
 C          11.475      -1.316       0.551
 C           9.224     -10.103       0.486
 C          15.800      -8.938       0.732
 C          14.328      -8.919       0.707
 C          15.902      -1.358       0.959
 C          13.571     -10.146       0.730
 C          14.414      -1.340       0.918
 C          12.097     -10.135       0.809
 C          13.632      -2.579       0.931
 C          11.568       3.677       0.150
 C          11.374     -11.374       0.689
 C          12.157      -2.575       0.823
 C          10.122       3.665       0.032
 C           9.914     -11.333       0.575
 C          11.417      -3.835       0.648
 C           9.407       2.451       0.032
 C           9.222     -12.656       0.512
 C          20.328      -1.425       0.445
 C          18.009     -10.215       0.915
 C          18.846      -1.407       0.701
 C          16.536     -10.185       0.796
 C          18.125      -2.644       0.951
 C          15.972       3.636       0.223
 C          15.770     -11.444       0.737
 C          16.651      -2.620       1.007
 C          14.503       3.659       0.185
 C          14.300     -11.427       0.703
 C          13.726       2.411       0.280
 C          13.560     -12.683       0.601
 C          15.885      -3.878       0.978
 C          14.356      -3.860       0.932
 C          12.250       2.439       0.345
 C          12.096     -12.648       0.535
 C          13.597      -5.119       1.012
 C          11.495       1.201       0.384
 C          11.371     -13.922       0.392
 C          12.116      -5.096       0.910
 C          10.058       1.179       0.221
 C           9.897     -13.867       0.416
 C          20.982      -2.694       0.340
 C          18.700     -11.470       0.795
 C          20.297      -3.958       0.498
 C          18.189       2.371       0.455
 C          17.954     -12.727       0.617
 C          18.843      -3.927       0.806
 C          16.711       2.373       0.347
 C          16.482     -12.722       0.637
 C          18.098      -5.179       1.041
 C          15.942       1.144       0.396
 C          15.744     -13.962       0.534
 C          16.618      -5.152       1.084
 C          14.455       1.159       0.359
 C          14.275     -13.940       0.510
 C          15.833      -6.392       1.139
 C          13.734      -0.102       0.559
 C          13.491     -15.202       0.537
 C          14.348      -6.375       1.106
 C          12.245      -0.073       0.503
 C          12.076     -15.168       0.464
 C          20.949      -5.249       0.446
 C          18.908       1.106       0.519
 C          18.650     -14.014       0.462
 C          20.252      -6.496       0.648
 C          18.112      -0.152       0.617
 C          17.912     -15.231       0.528
 C          18.784      -6.461       0.883
 C          16.627      -0.128       0.624
 C          16.499     -15.238       0.573
 C          18.014      -7.704       0.880
 C          15.676     -16.477       0.586
 C          16.530      -7.672       0.890
 C          14.277     -16.461       0.569
 C          20.934      -7.750       0.619
 C          20.207      -8.975       0.788
 C          18.759      -8.974       0.880
 C          20.882     -10.252       0.680
 C          20.161     -11.460       0.716
 C          11.409      -6.366       0.737
 C          21.045       2.305       0.201
 C          20.818     -12.796       0.660
 C          20.346       1.055       0.387
 C          20.126     -13.997       0.520
 C          21.043      -0.199       0.333
 C           9.950      -6.368       0.406
 C           9.980      -3.833       0.264
 C          10.015      -1.298       0.247
 C           9.333      -2.542       0.075
 C           9.302      -5.109       0.174
 C           9.241      -7.604       0.376
 C           9.338      -0.051       0.106
