   142
 frame    794
 H          22.172       4.851      -0.067
 H          20.938       7.032      -0.099
 H          18.753       8.311      -0.074
 H          14.063       9.635      -0.055
 H          16.571       9.603      -0.037
 H           9.637       7.173      -0.196
 H           8.348       5.026      -0.217
 H          11.850       8.399      -0.126
 H           8.142     -10.125       0.251
 H           8.313       2.496      -0.186
 H           8.113     -12.652       0.384
 H           9.346     -14.828       0.525
 H          11.529     -16.106       0.629
 H          16.217     -17.428       0.736
 H          13.711     -17.396       0.717
 H          20.647     -14.970       0.637
 H          22.082      -2.727       0.249
 H          22.049      -5.248       0.355
 H          22.011      -7.770       0.426
 H          21.972     -10.296       0.489
 H          22.143       2.322       0.013
 H          21.936     -12.823       0.564
 H          18.431     -16.193       0.686
 H          22.114      -0.204       0.122
 H           8.238      -2.554      -0.062
 H           8.203      -5.077       0.031
 H           8.170      -7.600       0.134
 H           8.273      -0.032      -0.137
 C          18.906       3.636       0.242
 C          20.384       3.612       0.135
 C          21.079       4.916      -0.115
 C          16.755       4.880       0.342
 C          18.187       4.906       0.158
 C          18.909       6.175      -0.065
 C          20.382       6.108      -0.152
 C          12.327       4.972       0.084
 C          13.752       4.916       0.330
 C          14.546       6.147       0.193
 C          16.012       6.122       0.213
 C          16.720       7.378       0.047
 C          18.158       7.377      -0.079
 C          11.635       6.276      -0.141
 C          12.415       7.453      -0.131
 C          13.858       7.411       0.022
 C          14.607       8.636       0.037
 C          16.002       8.616       0.058
 C           9.441       5.064      -0.254
 C          10.165       6.243      -0.251
 C          13.599      -7.611       0.870
 C          12.124      -7.613       0.725
 C          11.422      -8.878       0.558
 C           9.954      -8.893       0.362
 C          11.531      -1.332       0.319
 C           9.247     -10.142       0.395
 C          15.798      -8.897       0.949
 C          14.338      -8.878       0.908
 C          15.897      -1.346       0.622
 C          13.614     -10.163       0.898
 C          14.436      -1.324       0.580
 C          12.147     -10.140       0.710
 C          13.736      -2.594       0.431
 C          11.577       3.725       0.140
 C          11.383     -11.405       0.663
 C          12.281      -2.589       0.442
 C          10.106       3.748       0.002
 C           9.916     -11.411       0.522
 C          11.571      -3.849       0.358
 C           9.406       2.493      -0.027
 C           9.211     -12.723       0.344
 C          20.277      -1.442       0.308
 C          17.967     -10.210       0.815
 C          18.818      -1.423       0.475
 C          16.490     -10.197       0.947
 C          18.026      -2.661       0.564
 C          15.979       3.644       0.540
 C          15.770     -11.435       1.079
 C          16.577      -2.629       0.501
 C          14.500       3.668       0.530
 C          14.299     -11.416       1.056
 C          13.787       2.419       0.453
 C          13.511     -12.660       0.919
 C          15.857      -3.901       0.496
 C          14.418      -3.879       0.460
 C          12.304       2.427       0.273
 C          12.097     -12.678       0.680
 C          13.698      -5.143       0.545
 C          11.555       1.186       0.211
 C          11.379     -13.976       0.522
 C          12.250      -5.113       0.525
 C          10.097       1.219       0.006
 C           9.916     -13.914       0.408
 C          20.963      -2.730       0.284
 C          18.698     -11.500       0.793
 C          20.200      -3.962       0.418
 C          18.143       2.354       0.366
 C          17.949     -12.752       0.769
 C          18.704      -3.938       0.527
 C          16.661       2.388       0.487
 C          16.529     -12.698       0.955
 C          17.987      -5.185       0.673
 C          15.925       1.120       0.546
 C          15.743     -13.928       0.866
 C          16.540      -5.179       0.608
 C          14.473       1.141       0.525
 C          14.271     -13.908       0.844
 C          15.824      -6.433       0.820
 C          13.691      -0.099       0.576
 C          13.564     -15.169       0.733
 C          14.376      -6.414       0.790
 C          12.219      -0.085       0.453
 C          12.129     -15.176       0.581
 C          20.930      -5.223       0.392
 C          18.854       1.092       0.338
 C          18.632     -14.066       0.599
 C          20.210      -6.486       0.528
 C          18.144      -0.158       0.551
 C          17.857     -15.248       0.643
 C          18.738      -6.447       0.687
 C          16.671      -0.136       0.635
 C          16.418     -15.209       0.756
 C          18.034      -7.694       0.850
 C          15.668     -16.439       0.811
 C          16.560      -7.652       0.937
 C          14.277     -16.417       0.797
 C          20.882      -7.770       0.455
 C          20.191      -9.020       0.570
 C          18.721      -8.972       0.700
 C          20.871     -10.285       0.614
 C          20.171     -11.536       0.695
 C          11.473      -6.357       0.525
 C          21.041       2.340       0.148
 C          20.839     -12.862       0.492
 C          20.325       1.088       0.193
 C          20.104     -14.037       0.525
 C          20.991      -0.176       0.170
 C          10.007      -6.358       0.286
 C          10.078      -3.838       0.184
 C          10.071      -1.315       0.081
 C           9.357      -2.588       0.019
 C           9.324      -5.077       0.116
 C           9.293      -7.631       0.206
 C           9.397      -0.031      -0.088
