   142
 frame    341
 H          22.172       4.851      -0.067
 H          20.938       7.032      -0.099
 H          18.753       8.311      -0.074
 H          14.063       9.635      -0.055
 H          16.571       9.603      -0.037
 H           9.637       7.173      -0.196
 H           8.348       5.026      -0.217
 H          11.850       8.399      -0.126
 H           8.142     -10.125       0.251
 H           8.313       2.496      -0.186
 H           8.113     -12.652       0.384
 H           9.346     -14.828       0.525
 H          11.529     -16.106       0.629
 H          16.217     -17.428       0.736
 H          13.711     -17.396       0.717
 H          20.647     -14.970       0.637
 H          22.082      -2.727       0.249
 H          22.049      -5.248       0.355
 H          22.011      -7.770       0.426
 H          21.972     -10.296       0.489
 H          22.143       2.322       0.013
 H          21.936     -12.823       0.564
 H          18.431     -16.193       0.686
 H          22.114      -0.204       0.122
 H           8.238      -2.554      -0.062
 H           8.203      -5.077       0.031
 H           8.170      -7.600       0.134
 H           8.273      -0.032      -0.137
 C          18.889       3.615      -0.280
 C          20.348       3.590      -0.052
 C          21.054       4.872      -0.088
 C          16.737       4.910      -0.683
 C          18.206       4.891      -0.402
 C          18.935       6.168      -0.275
 C          20.389       6.088      -0.131
 C          12.313       4.972      -0.475
 C          13.788       4.948      -0.712
 C          14.539       6.228      -0.766
 C          16.028       6.211      -0.749
 C          16.803       7.450      -0.532
 C          18.214       7.392      -0.355
 C          11.616       6.265      -0.343
 C          12.374       7.470      -0.418
 C          13.794       7.487      -0.553
 C          14.605       8.670      -0.277
 C          16.014       8.647      -0.254
 C           9.457       5.015      -0.197
 C          10.156       6.212      -0.218
 C          13.629      -7.670      -0.235
 C          12.154      -7.649      -0.100
 C          11.414      -8.922      -0.125
 C           9.958      -8.901       0.021
 C          11.517      -1.355      -0.413
 C           9.264     -10.143       0.262
 C          15.830      -8.963      -0.247
 C          14.336      -8.948      -0.275
 C          15.909      -1.427      -0.386
 C          13.604     -10.222      -0.230
 C          14.458      -1.416      -0.420
 C          12.144     -10.187      -0.124
 C          13.723      -2.636      -0.411
 C          11.599       3.707      -0.379
 C          11.401     -11.441       0.087
 C          12.261      -2.628      -0.455
 C          10.144       3.716      -0.180
 C           9.942     -11.392       0.296
 C          11.537      -3.876      -0.485
 C           9.434       2.482      -0.176
 C           9.227     -12.670       0.353
 C          20.339      -1.426      -0.169
 C          17.985     -10.260      -0.013
 C          18.845      -1.447      -0.261
 C          16.524     -10.254      -0.182
 C          18.063      -2.700      -0.333
 C          15.985       3.656      -0.694
 C          15.781     -11.510      -0.225
 C          16.606      -2.672      -0.336
 C          14.512       3.678      -0.706
 C          14.309     -11.493      -0.252
 C          13.777       2.426      -0.630
 C          13.557     -12.747      -0.175
 C          15.885      -3.934      -0.142
 C          14.408      -3.915      -0.183
 C          12.316       2.431      -0.519
 C          12.089     -12.721       0.071
 C          13.684      -5.173      -0.343
 C          11.556       1.184      -0.446
 C          11.340     -13.980       0.286
 C          12.227      -5.138      -0.375
 C          10.097       1.214      -0.316
 C           9.887     -13.886       0.419
 C          20.981      -2.723       0.030
 C          18.687     -11.531       0.210
 C          20.267      -3.980      -0.057
 C          18.148       2.356      -0.422
 C          17.967     -12.796       0.153
 C          18.762      -3.966      -0.321
 C          16.687       2.382      -0.561
 C          16.506     -12.782      -0.137
 C          18.034      -5.210      -0.241
 C          15.964       1.095      -0.557
 C          15.758     -14.063      -0.157
 C          16.575      -5.209      -0.250
 C          14.471       1.118      -0.597
 C          14.273     -14.047      -0.180
 C          15.844      -6.434      -0.211
 C          13.734      -0.140      -0.482
 C          13.500     -15.270       0.112
 C          14.387      -6.420      -0.248
 C          12.260      -0.105      -0.328
 C          12.070     -15.197       0.277
 C          20.957      -5.242       0.122
 C          18.878       1.093      -0.316
 C          18.681     -14.068       0.359
 C          20.272      -6.520       0.009
 C          18.134      -0.173      -0.229
 C          17.923     -15.274       0.325
 C          18.786      -6.467      -0.087
 C          16.666      -0.180      -0.411
 C          16.495     -15.309       0.149
 C          18.039      -7.724       0.025
 C          15.685     -16.484       0.467
 C          16.571      -7.699      -0.161
 C          14.277     -16.465       0.462
 C          20.933      -7.808       0.188
 C          20.202      -9.027       0.225
 C          18.743      -9.006       0.022
 C          20.851     -10.300       0.459
 C          20.143     -11.524       0.458
 C          11.448      -6.383      -0.257
 C          21.020       2.343       0.004
 C          20.815     -12.815       0.511
 C          20.328       1.089      -0.153
 C          20.130     -14.015       0.534
 C          21.029      -0.151      -0.106
 C           9.951      -6.399      -0.218
 C          10.035      -3.851      -0.284
 C          10.029      -1.293      -0.385
 C           9.346      -2.575      -0.235
 C           9.307      -5.100      -0.153
 C           9.253      -7.669      -0.068
 C           9.363      -0.003      -0.341
