   142
 frame     90
 H          22.172       4.851      -0.067
 H          20.938       7.032      -0.099
 H          18.753       8.311      -0.074
 H          14.063       9.635      -0.055
 H          16.571       9.603      -0.037
 H           9.637       7.173      -0.196
 H           8.348       5.026      -0.217
 H          11.850       8.399      -0.126
 H           8.142     -10.125       0.251
 H           8.313       2.496      -0.186
 H           8.113     -12.652       0.384
 H           9.346     -14.828       0.525
 H          11.529     -16.106       0.629
 H          16.217     -17.428       0.736
 H          13.711     -17.396       0.717
 H          20.647     -14.970       0.637
 H          22.082      -2.727       0.249
 H          22.049      -5.248       0.355
 H          22.011      -7.770       0.426
 H          21.972     -10.296       0.489
 H          22.143       2.322       0.013
 H          21.936     -12.823       0.564
 H          18.431     -16.193       0.686
 H          22.114      -0.204       0.122
 H           8.238      -2.554      -0.062
 H           8.203      -5.077       0.031
 H           8.170      -7.600       0.134
 H           8.273      -0.032      -0.137
 C          18.863       3.575      -0.053
 C          20.338       3.553      -0.111
 C          21.049       4.837      -0.074
 C          16.708       4.860      -0.093
 C          18.158       4.834      -0.130
 C          18.886       6.093      -0.079
 C          20.360       6.047      -0.044
 C          12.356       4.906      -0.191
 C          13.804       4.900      -0.122
 C          14.550       6.137      -0.129
 C          15.997       6.119      -0.117
 C          16.740       7.370      -0.070
 C          18.182       7.334      -0.046
 C          11.665       6.186      -0.155
 C          12.400       7.408      -0.099
 C          13.843       7.410      -0.096
 C          14.609       8.657      -0.059
 C          16.004       8.639      -0.047
 C           9.469       4.979      -0.211
 C          10.188       6.172      -0.148
 C          13.636      -7.673      -0.050
 C          12.164      -7.630       0.070
 C          11.422      -8.858       0.425
 C           9.942      -8.848       0.391
 C          11.529      -1.367      -0.234
 C           9.253     -10.114       0.275
 C          15.817      -8.926       0.308
 C          14.339      -8.907       0.276
 C          15.906      -1.395      -0.444
 C          13.591     -10.140       0.569
 C          14.474      -1.373      -0.487
 C          12.136     -10.130       0.560
 C          13.699      -2.653      -0.431
 C          11.618       3.665      -0.135
 C          11.408     -11.366       0.385
 C          12.223      -2.624      -0.381
 C          10.146       3.677      -0.242
 C           9.936     -11.346       0.272
 C          11.480      -3.864      -0.321
 C           9.422       2.467      -0.165
 C           9.229     -12.641       0.385
 C          20.291      -1.465       0.221
 C          17.972     -10.200       0.656
 C          18.833      -1.458      -0.088
 C          16.518     -10.178       0.616
 C          18.107      -2.696      -0.264
 C          15.965       3.628       0.067
 C          15.765     -11.424       0.602
 C          16.645      -2.689      -0.388
 C          14.509       3.650       0.041
 C          14.304     -11.407       0.581
 C          13.772       2.396       0.108
 C          13.566     -12.650       0.467
 C          15.933      -3.930      -0.426
 C          14.384      -3.910      -0.464
 C          12.313       2.417       0.098
 C          12.115     -12.630       0.393
 C          13.660      -5.160      -0.344
 C          11.566       1.157       0.054
 C          11.384     -13.900       0.502
 C          12.191      -5.135      -0.296
 C          10.078       1.193       0.025
 C           9.909     -13.846       0.515
 C          20.994      -2.711       0.280
 C          18.669     -11.457       0.499
 C          20.264      -3.957       0.208
 C          18.133       2.344       0.186
 C          17.930     -12.699       0.473
 C          18.818      -3.953      -0.173
 C          16.678       2.364       0.158
 C          16.475     -12.682       0.507
 C          18.068      -5.210      -0.170
 C          15.952       1.109      -0.070
 C          15.734     -13.933       0.535
 C          16.616      -5.194      -0.274
 C          14.477       1.119      -0.080
 C          14.282     -13.915       0.517
 C          15.843      -6.463      -0.267
 C          13.740      -0.116      -0.325
 C          13.539     -15.170       0.607
 C          14.399      -6.447      -0.289
 C          12.266      -0.117      -0.199
 C          12.094     -15.134       0.613
 C          20.955      -5.234       0.374
 C          18.846       1.067       0.184
 C          18.634     -13.989       0.585
 C          20.219      -6.458       0.422
 C          18.128      -0.184      -0.092
 C          17.893     -15.208       0.667
 C          18.749      -6.449       0.113
 C          16.664      -0.155      -0.271
 C          16.449     -15.207       0.635
 C          18.029      -7.703       0.186
 C          15.676     -16.453       0.698
 C          16.562      -7.704       0.011
 C          14.279     -16.433       0.687
 C          20.913      -7.747       0.507
 C          20.197      -8.974       0.586
 C          18.719      -8.951       0.552
 C          20.858     -10.258       0.480
 C          20.145     -11.477       0.433
 C          11.465      -6.362      -0.047
 C          21.031       2.327      -0.009
 C          20.824     -12.791       0.538
 C          20.334       1.067       0.186
 C          20.110     -13.979       0.631
 C          21.017      -0.182       0.214
 C           9.998      -6.333       0.210
 C          10.019      -3.837      -0.018
 C          10.057      -1.337       0.018
 C           9.319      -2.564       0.014
 C           9.289      -5.089       0.109
 C           9.266      -7.600       0.275
 C           9.367      -0.042       0.002
