   142
 frame    219
 H          22.172       4.851      -0.067
 H          20.938       7.032      -0.099
 H          18.753       8.311      -0.074
 H          14.063       9.635      -0.055
 H          16.571       9.603      -0.037
 H           9.637       7.173      -0.196
 H           8.348       5.026      -0.217
 H          11.850       8.399      -0.126
 H           8.142     -10.125       0.251
 H           8.313       2.496      -0.186
 H           8.113     -12.652       0.384
 H           9.346     -14.828       0.525
 H          11.529     -16.106       0.629
 H          16.217     -17.428       0.736
 H          13.711     -17.396       0.717
 H          20.647     -14.970       0.637
 H          22.082      -2.727       0.249
 H          22.049      -5.248       0.355
 H          22.011      -7.770       0.426
 H          21.972     -10.296       0.489
 H          22.143       2.322       0.013
 H          21.936     -12.823       0.564
 H          18.431     -16.193       0.686
 H          22.114      -0.204       0.122
 H           8.238      -2.554      -0.062
 H           8.203      -5.077       0.031
 H           8.170      -7.600       0.134
 H           8.273      -0.032      -0.137
 C          18.855       3.606      -0.192
 C          20.340       3.572      -0.112
 C          21.058       4.841      -0.176
 C          16.695       4.880       0.067
 C          18.152       4.867      -0.077
 C          18.901       6.107      -0.179
 C          20.372       6.045      -0.233
 C          12.366       4.939      -0.155
 C          13.819       4.914       0.025
 C          14.540       6.178       0.222
 C          16.003       6.158       0.251
 C          16.760       7.405       0.081
 C          18.195       7.346      -0.145
 C          11.657       6.203      -0.240
 C          12.386       7.425      -0.191
 C          13.818       7.444       0.056
 C          14.606       8.675       0.050
 C          16.001       8.660       0.043
 C           9.464       4.990      -0.290
 C          10.179       6.178      -0.327
 C          13.641      -7.686      -0.329
 C          12.164      -7.644      -0.254
 C          11.426      -8.906      -0.200
 C           9.953      -8.890      -0.043
 C          11.518      -1.357      -0.481
 C           9.241     -10.142       0.216
 C          15.814      -8.969      -0.127
 C          14.348      -8.954      -0.159
 C          15.936      -1.393      -0.710
 C          13.605     -10.219      -0.005
 C          14.455      -1.376      -0.728
 C          12.154     -10.166      -0.040
 C          13.705      -2.621      -0.640
 C          11.635       3.692      -0.281
 C          11.432     -11.413       0.212
 C          12.225      -2.631      -0.453
 C          10.153       3.697      -0.242
 C           9.943     -11.374       0.266
 C          11.483      -3.866      -0.401
 C           9.427       2.476      -0.219
 C           9.223     -12.653       0.294
 C          20.323      -1.446      -0.139
 C          17.975     -10.237       0.073
 C          18.845      -1.443      -0.316
 C          16.520     -10.250       0.048
 C          18.108      -2.703      -0.322
 C          15.969       3.655      -0.160
 C          15.768     -11.483       0.343
 C          16.640      -2.660      -0.588
 C          14.519       3.671      -0.180
 C          14.316     -11.470       0.313
 C          13.766       2.436      -0.428
 C          13.575     -12.677       0.599
 C          15.884      -3.927      -0.592
 C          14.430      -3.912      -0.615
 C          12.322       2.419      -0.457
 C          12.133     -12.666       0.416
 C          13.669      -5.183      -0.559
 C          11.562       1.161      -0.548
 C          11.391     -13.913       0.387
 C          12.189      -5.124      -0.372
 C          10.091       1.184      -0.393
 C           9.910     -13.858       0.310
 C          21.006      -2.725      -0.055
 C          18.661     -11.501       0.320
 C          20.282      -3.964       0.005
 C          18.143       2.349      -0.382
 C          17.918     -12.737       0.489
 C          18.812      -3.955      -0.219
 C          16.701       2.397      -0.381
 C          16.469     -12.712       0.633
 C          18.082      -5.195      -0.241
 C          15.956       1.116      -0.460
 C          15.732     -13.953       0.888
 C          16.605      -5.216      -0.488
 C          14.478       1.142      -0.479
 C          14.274     -13.932       0.882
 C          15.866      -6.467      -0.538
 C          13.740      -0.110      -0.571
 C          13.532     -15.188       0.751
 C          14.384      -6.454      -0.564
 C          12.266      -0.106      -0.510
 C          12.098     -15.145       0.493
 C          20.963      -5.235       0.043
 C          18.876       1.069      -0.424
 C          18.637     -13.996       0.488
 C          20.249      -6.498       0.056
 C          18.143      -0.177      -0.404
 C          17.891     -15.211       0.555
 C          18.778      -6.467      -0.137
 C          16.667      -0.148      -0.514
 C          16.452     -15.225       0.771
 C          18.036      -7.723      -0.132
 C          15.673     -16.467       0.797
 C          16.564      -7.718      -0.257
 C          14.277     -16.442       0.781
 C          20.945      -7.776       0.116
 C          20.207      -9.022       0.151
 C          18.739      -8.991      -0.068
 C          20.875     -10.292       0.422
 C          20.144     -11.501       0.423
 C          11.447      -6.382      -0.304
 C          21.037       2.337      -0.046
 C          20.830     -12.793       0.445
 C          20.341       1.063      -0.233
 C          20.112     -13.981       0.435
 C          21.054      -0.200      -0.181
 C           9.981      -6.368      -0.174
 C          10.020      -3.834      -0.226
 C          10.047      -1.325      -0.345
 C           9.327      -2.583      -0.309
 C           9.302      -5.095      -0.220
 C           9.249      -7.625      -0.127
 C           9.344      -0.056      -0.390
