   142
 frame    845
 H          22.172       4.851      -0.067
 H          20.938       7.032      -0.099
 H          18.753       8.311      -0.074
 H          14.063       9.635      -0.055
 H          16.571       9.603      -0.037
 H           9.637       7.173      -0.196
 H           8.348       5.026      -0.217
 H          11.850       8.399      -0.126
 H           8.142     -10.125       0.251
 H           8.313       2.496      -0.186
 H           8.113     -12.652       0.384
 H           9.346     -14.828       0.525
 H          11.529     -16.106       0.629
 H          16.217     -17.428       0.736
 H          13.711     -17.396       0.717
 H          20.647     -14.970       0.637
 H          22.082      -2.727       0.249
 H          22.049      -5.248       0.355
 H          22.011      -7.770       0.426
 H          21.972     -10.296       0.489
 H          22.143       2.322       0.013
 H          21.936     -12.823       0.564
 H          18.431     -16.193       0.686
 H          22.114      -0.204       0.122
 H           8.238      -2.554      -0.062
 H           8.203      -5.077       0.031
 H           8.170      -7.600       0.134
 H           8.273      -0.032      -0.137
 C          18.843       3.592       0.131
 C          20.307       3.578       0.021
 C          21.030       4.881      -0.112
 C          16.745       4.821       0.019
 C          18.185       4.859       0.104
 C          18.896       6.133       0.092
 C          20.355       6.089      -0.011
 C          12.324       4.925       0.023
 C          13.758       4.864      -0.011
 C          14.528       6.116      -0.191
 C          16.019       6.098      -0.170
 C          16.740       7.372      -0.113
 C          18.181       7.348      -0.012
 C          11.641       6.222       0.013
 C          12.392       7.424      -0.056
 C          13.840       7.407      -0.131
 C          14.602       8.634      -0.015
 C          16.003       8.620      -0.003
 C           9.487       5.026      -0.244
 C          10.178       6.215      -0.097
 C          13.571      -7.629       1.066
 C          12.115      -7.594       0.860
 C          11.447      -8.880       0.670
 C           9.968      -8.869       0.427
 C          11.524      -1.351       0.471
 C           9.253     -10.133       0.341
 C          15.791      -8.899       1.238
 C          14.329      -8.878       1.191
 C          15.895      -1.347       0.745
 C          13.622     -10.139       0.930
 C          14.441      -1.339       0.701
 C          12.197     -10.121       0.618
 C          13.738      -2.606       0.631
 C          11.640       3.684       0.019
 C          11.432     -11.375       0.545
 C          12.280      -2.596       0.489
 C          10.174       3.708      -0.106
 C           9.958     -11.372       0.403
 C          11.541      -3.851       0.435
 C           9.427       2.481      -0.086
 C           9.246     -12.688       0.353
 C          20.294      -1.446       0.486
 C          17.912     -10.190       0.719
 C          18.816      -1.431       0.631
 C          16.469     -10.173       0.971
 C          18.028      -2.662       0.624
 C          15.968       3.591       0.227
 C          15.762     -11.394       0.751
 C          16.558      -2.638       0.691
 C          14.504       3.612       0.199
 C          14.300     -11.376       0.740
 C          13.790       2.405       0.481
 C          13.535     -12.622       0.593
 C          15.842      -3.889       0.837
 C          14.413      -3.875       0.815
 C          12.364       2.410       0.167
 C          12.088     -12.644       0.614
 C          13.694      -5.137       0.739
 C          11.591       1.182       0.301
 C          11.377     -13.929       0.676
 C          12.235      -5.121       0.588
 C          10.110       1.205       0.066
 C           9.916     -13.886       0.559
 C          20.974      -2.719       0.451
 C          18.648     -11.465       0.660
 C          20.230      -3.955       0.554
 C          18.078       2.339       0.275
 C          17.957     -12.718       0.697
 C          18.728      -3.936       0.605
 C          16.642       2.361       0.530
 C          16.512     -12.661       0.640
 C          18.003      -5.188       0.721
 C          15.926       1.123       0.861
 C          15.754     -13.923       0.489
 C          16.524      -5.170       0.782
 C          14.470       1.140       0.833
 C          14.262     -13.902       0.479
 C          15.828      -6.453       0.919
 C          13.678      -0.111       0.807
 C          13.543     -15.164       0.581
 C          14.359      -6.437       0.885
 C          12.222      -0.100       0.577
 C          12.098     -15.146       0.657
 C          20.938      -5.212       0.544
 C          18.812       1.097       0.434
 C          18.630     -14.011       0.759
 C          20.228      -6.461       0.688
 C          18.139      -0.164       0.704
 C          17.885     -15.217       0.713
 C          18.745      -6.439       0.822
 C          16.677      -0.147       0.871
 C          16.437     -15.200       0.603
 C          18.039      -7.675       0.993
 C          15.673     -16.434       0.736
 C          16.576      -7.663       1.140
 C          14.279     -16.418       0.731
 C          20.887      -7.754       0.586
 C          20.171      -8.995       0.626
 C          18.691      -8.967       0.814
 C          20.859     -10.266       0.543
 C          20.118     -11.492       0.565
 C          11.458      -6.345       0.660
 C          21.023       2.338       0.090
 C          20.801     -12.831       0.505
 C          20.303       1.077       0.239
 C          20.089     -14.010       0.684
 C          20.992      -0.181       0.289
 C           9.978      -6.336       0.469
 C          10.047      -3.828       0.324
 C          10.048      -1.323       0.278
 C           9.339      -2.580       0.199
 C           9.299      -5.065       0.280
 C           9.277      -7.609       0.348
 C           9.384      -0.041       0.082
