   142
 frame     16
 H          22.172       4.851      -0.067
 H          20.938       7.032      -0.099
 H          18.753       8.311      -0.074
 H          14.063       9.635      -0.055
 H          16.571       9.603      -0.037
 H           9.637       7.173      -0.196
 H           8.348       5.026      -0.217
 H          11.850       8.399      -0.126
 H           8.142     -10.125       0.251
 H           8.313       2.496      -0.186
 H           8.113     -12.652       0.384
 H           9.346     -14.828       0.525
 H          11.529     -16.106       0.629
 H          16.217     -17.428       0.736
 H          13.711     -17.396       0.717
 H          20.647     -14.970       0.637
 H          22.082      -2.727       0.249
 H          22.049      -5.248       0.355
 H          22.011      -7.770       0.426
 H          21.972     -10.296       0.489
 H          22.143       2.322       0.013
 H          21.936     -12.823       0.564
 H          18.431     -16.193       0.686
 H          22.114      -0.204       0.122
 H           8.238      -2.554      -0.062
 H           8.203      -5.077       0.031
 H           8.170      -7.600       0.134
 H           8.273      -0.032      -0.137
 C          18.882       3.599      -0.034
 C          20.354       3.577      -0.030
 C          21.065       4.870      -0.062
 C          16.714       4.879      -0.062
 C          18.171       4.861      -0.057
 C          18.909       6.129      -0.070
 C          20.383       6.074      -0.079
 C          12.347       4.933      -0.121
 C          13.802       4.915      -0.094
 C          14.545       6.164      -0.085
 C          16.003       6.146      -0.071
 C          16.750       7.399      -0.066
 C          18.192       7.358      -0.070
 C          11.640       6.221      -0.139
 C          12.387       7.431      -0.119
 C          13.829       7.435      -0.090
 C          14.609       8.671      -0.065
 C          16.002       8.654      -0.055
 C           9.454       5.015      -0.189
 C          10.167       6.202      -0.177
 C          13.644      -7.629       0.273
 C          12.172      -7.629       0.262
 C          11.430      -8.885       0.293
 C           9.959      -8.868       0.247
 C          11.555      -1.360      -0.016
 C           9.248     -10.137       0.284
 C          15.805      -8.923       0.370
 C          14.344      -8.905       0.342
 C          15.897      -1.417       0.243
 C          13.602     -10.160       0.396
 C          14.449      -1.392       0.245
 C          12.140     -10.146       0.363
 C          13.700      -2.644       0.180
 C          11.604       3.690      -0.126
 C          11.402     -11.398       0.400
 C          12.242      -2.610       0.202
 C          10.132       3.705      -0.160
 C           9.930     -11.377       0.363
 C          11.522      -3.857       0.129
 C           9.418       2.481      -0.159
 C           9.219     -12.669       0.410
 C          20.288      -1.451       0.147
 C          17.975     -10.218       0.463
 C          18.805      -1.446       0.127
 C          16.512     -10.196       0.446
 C          18.072      -2.684       0.293
 C          15.972       3.625      -0.052
 C          15.770     -11.441       0.483
 C          16.612      -2.679       0.258
 C          14.512       3.643      -0.070
 C          14.312     -11.423       0.461
 C          13.771       2.395      -0.064
 C          13.568     -12.676       0.501
 C          15.859      -3.887       0.321
 C          14.395      -3.864       0.312
 C          12.309       2.419      -0.092
 C          12.113     -12.659       0.473
 C          13.668      -5.102       0.282
 C          11.567       1.175      -0.079
 C          11.374     -13.926       0.520
 C          12.204      -5.115       0.300
 C          10.094       1.194      -0.117
 C           9.900     -13.871       0.488
 C          20.974      -2.713       0.228
 C          18.680     -11.489       0.509
 C          20.260      -3.965       0.256
 C          18.144       2.347      -0.006
 C          17.937     -12.731       0.548
 C          18.770      -3.946       0.289
 C          16.681       2.359      -0.020
 C          16.481     -12.712       0.538
 C          18.043      -5.190       0.428
 C          15.941       1.099      -0.013
 C          15.737     -13.959       0.581
 C          16.579      -5.139       0.341
 C          14.479       1.115      -0.040
 C          14.280     -13.941       0.566
 C          15.835      -6.402       0.480
 C          13.747      -0.148      -0.013
 C          13.531     -15.194       0.613
 C          14.378      -6.383       0.445
 C          12.277      -0.102      -0.026
 C          12.090     -15.153       0.591
 C          20.942      -5.233       0.334
 C          18.852       1.084       0.042
 C          18.643     -14.017       0.599
 C          20.222      -6.478       0.352
 C          18.110      -0.172       0.080
 C          17.894     -15.226       0.646
 C          18.739      -6.451       0.337
 C          16.641      -0.181       0.032
 C          16.453     -15.230       0.640
 C          18.010      -7.702       0.385
 C          15.673     -16.465       0.689
 C          16.544      -7.667       0.335
 C          14.279     -16.448       0.678
 C          20.903      -7.753       0.414
 C          20.190      -8.994       0.445
 C          18.718      -8.976       0.434
 C          20.865     -10.281       0.485
 C          20.152     -11.504       0.518
 C          11.482      -6.360       0.177
 C          21.036       2.335       0.009
 C          20.829     -12.813       0.562
 C          20.327       1.066       0.053
 C          20.117     -13.999       0.603
 C          21.005      -0.193       0.110
 C           9.999      -6.352       0.123
 C          10.030      -3.839       0.017
 C          10.070      -1.326      -0.067
 C           9.346      -2.570      -0.032
 C           9.311      -5.089       0.063
 C           9.279      -7.609       0.169
 C           9.383      -0.049      -0.108
