   142
 frame    649
 H          22.172       4.851      -0.067
 H          20.938       7.032      -0.099
 H          18.753       8.311      -0.074
 H          14.063       9.635      -0.055
 H          16.571       9.603      -0.037
 H           9.637       7.173      -0.196
 H           8.348       5.026      -0.217
 H          11.850       8.399      -0.126
 H           8.142     -10.125       0.251
 H           8.313       2.496      -0.186
 H           8.113     -12.652       0.384
 H           9.346     -14.828       0.525
 H          11.529     -16.106       0.629
 H          16.217     -17.428       0.736
 H          13.711     -17.396       0.717
 H          20.647     -14.970       0.637
 H          22.082      -2.727       0.249
 H          22.049      -5.248       0.355
 H          22.011      -7.770       0.426
 H          21.972     -10.296       0.489
 H          22.143       2.322       0.013
 H          21.936     -12.823       0.564
 H          18.431     -16.193       0.686
 H          22.114      -0.204       0.122
 H           8.238      -2.554      -0.062
 H           8.203      -5.077       0.031
 H           8.170      -7.600       0.134
 H           8.273      -0.032      -0.137
 C          18.858       3.588       0.061
 C          20.347       3.582      -0.022
 C          21.047       4.876      -0.108
 C          16.703       4.847       0.344
 C          18.147       4.850       0.143
 C          18.863       6.117       0.081
 C          20.330       6.072      -0.107
 C          12.362       4.922       0.088
 C          13.795       4.879       0.323
 C          14.543       6.125       0.271
 C          15.995       6.105       0.273
 C          16.733       7.369       0.180
 C          18.162       7.353       0.108
 C          11.685       6.216       0.027
 C          12.410       7.434       0.065
 C          13.847       7.400       0.151
 C          14.606       8.649       0.049
 C          16.003       8.633       0.057
 C           9.474       5.025      -0.242
 C          10.229       6.195      -0.201
 C          13.651      -7.696       0.206
 C          12.208      -7.644       0.288
 C          11.452      -8.860       0.552
 C           9.957      -8.862       0.422
 C          11.544      -1.337      -0.067
 C           9.248     -10.129       0.398
 C          15.808      -8.927       0.643
 C          14.332      -8.906       0.607
 C          15.915      -1.378      -0.169
 C          13.584     -10.130       0.767
 C          14.451      -1.347      -0.206
 C          12.151     -10.107       0.612
 C          13.725      -2.600      -0.039
 C          11.627       3.675      -0.029
 C          11.422     -11.376       0.476
 C          12.251      -2.599      -0.162
 C          10.136       3.711      -0.161
 C           9.938     -11.383       0.356
 C          11.529      -3.869      -0.086
 C           9.409       2.483      -0.042
 C           9.247     -12.678       0.358
 C          20.278      -1.401       0.118
 C          17.952     -10.174       0.711
 C          18.819      -1.432       0.063
 C          16.512     -10.169       0.829
 C          18.076      -2.673      -0.046
 C          15.962       3.593       0.462
 C          15.761     -11.394       0.987
 C          16.606      -2.640       0.017
 C          14.499       3.617       0.463
 C          14.301     -11.378       0.955
 C          13.758       2.376       0.348
 C          13.562     -12.622       0.906
 C          15.874      -3.906       0.232
 C          14.421      -3.887       0.199
 C          12.318       2.390       0.183
 C          12.120     -12.626       0.666
 C          13.687      -5.178       0.079
 C          11.587       1.159       0.206
 C          11.414     -13.913       0.657
 C          12.222      -5.153      -0.068
 C          10.090       1.199       0.057
 C           9.967     -13.874       0.451
 C          20.940      -2.680       0.284
 C          18.654     -11.467       0.596
 C          20.243      -3.960       0.208
 C          18.126       2.320       0.271
 C          17.918     -12.703       0.738
 C          18.763      -3.954       0.063
 C          16.689       2.345       0.387
 C          16.470     -12.656       0.941
 C          18.036      -5.224       0.049
 C          15.941       1.115       0.286
 C          15.738     -13.897       0.910
 C          16.566      -5.212       0.133
 C          14.476       1.142       0.254
 C          14.280     -13.886       0.909
 C          15.840      -6.467       0.007
 C          13.752      -0.076      -0.073
 C          13.544     -15.147       0.832
 C          14.392      -6.450      -0.012
 C          12.315      -0.090       0.005
 C          12.107     -15.144       0.757
 C          20.911      -5.254       0.367
 C          18.820       1.072       0.300
 C          18.599     -13.999       0.736
 C          20.214      -6.527       0.324
 C          18.079      -0.163       0.095
 C          17.874     -15.217       0.818
 C          18.746      -6.477       0.260
 C          16.646      -0.112      -0.024
 C          16.434     -15.181       0.865
 C          17.973      -7.712       0.409
 C          15.675     -16.433       0.795
 C          16.541      -7.734       0.265
 C          14.277     -16.413       0.784
 C          20.922      -7.790       0.471
 C          20.188      -8.999       0.617
 C          18.690      -8.953       0.684
 C          20.866     -10.280       0.607
 C          20.142     -11.509       0.513
 C          11.477      -6.386       0.118
 C          21.041       2.342       0.117
 C          20.800     -12.819       0.493
 C          20.325       1.078       0.226
 C          20.050     -13.996       0.559
 C          21.018      -0.165       0.169
 C          10.010      -6.406       0.087
 C          10.044      -3.840      -0.027
 C          10.082      -1.277      -0.091
 C           9.379      -2.540       0.021
 C           9.335      -5.114       0.098
 C           9.263      -7.640       0.217
 C           9.371      -0.024      -0.066
