   142
 frame    471
 H          22.172       4.851      -0.067
 H          20.938       7.032      -0.099
 H          18.753       8.311      -0.074
 H          14.063       9.635      -0.055
 H          16.571       9.603      -0.037
 H           9.637       7.173      -0.196
 H           8.348       5.026      -0.217
 H          11.850       8.399      -0.126
 H           8.142     -10.125       0.251
 H           8.313       2.496      -0.186
 H           8.113     -12.652       0.384
 H           9.346     -14.828       0.525
 H          11.529     -16.106       0.629
 H          16.217     -17.428       0.736
 H          13.711     -17.396       0.717
 H          20.647     -14.970       0.637
 H          22.082      -2.727       0.249
 H          22.049      -5.248       0.355
 H          22.011      -7.770       0.426
 H          21.972     -10.296       0.489
 H          22.143       2.322       0.013
 H          21.936     -12.823       0.564
 H          18.431     -16.193       0.686
 H          22.114      -0.204       0.122
 H           8.238      -2.554      -0.062
 H           8.203      -5.077       0.031
 H           8.170      -7.600       0.134
 H           8.273      -0.032      -0.137
 C          18.904       3.618      -0.493
 C          20.384       3.589      -0.370
 C          21.089       4.870      -0.235
 C          16.716       4.873      -0.437
 C          18.186       4.886      -0.422
 C          18.935       6.135      -0.160
 C          20.403       6.069      -0.105
 C          12.339       4.965      -0.492
 C          13.810       4.913      -0.472
 C          14.548       6.135      -0.348
 C          15.997       6.119      -0.323
 C          16.734       7.384      -0.126
 C          18.190       7.348      -0.058
 C          11.624       6.238      -0.225
 C          12.392       7.429      -0.108
 C          13.845       7.425      -0.151
 C          14.609       8.670      -0.100
 C          16.008       8.649      -0.079
 C           9.429       5.020      -0.342
 C          10.143       6.195      -0.191
 C          13.663      -7.684      -0.276
 C          12.199      -7.649      -0.160
 C          11.438      -8.897      -0.081
 C           9.985      -8.873       0.084
 C          11.557      -1.342      -0.179
 C           9.270     -10.144       0.115
 C          15.821      -8.982      -0.216
 C          14.346      -8.967      -0.242
 C          15.909      -1.400      -0.244
 C          13.574     -10.203      -0.176
 C          14.446      -1.376      -0.274
 C          12.124     -10.178      -0.134
 C          13.686      -2.624      -0.117
 C          11.590       3.719      -0.588
 C          11.396     -11.455      -0.089
 C          12.239      -2.594       0.036
 C          10.115       3.719      -0.504
 C           9.916     -11.410       0.026
 C          11.492      -3.856       0.147
 C           9.438       2.480      -0.320
 C           9.197     -12.684       0.254
 C          20.293      -1.453       0.150
 C          18.007     -10.248      -0.040
 C          18.790      -1.432      -0.029
 C          16.567     -10.234      -0.145
 C          18.079      -2.668       0.150
 C          15.977       3.619      -0.528
 C          15.784     -11.470      -0.070
 C          16.632      -2.667      -0.050
 C          14.517       3.642      -0.553
 C          14.310     -11.445      -0.094
 C          13.749       2.405      -0.579
 C          13.583     -12.703       0.055
 C          15.891      -3.917       0.019
 C          14.389      -3.897      -0.012
 C          12.293       2.429      -0.537
 C          12.105     -12.726       0.065
 C          13.653      -5.155      -0.055
 C          11.566       1.167      -0.412
 C          11.361     -13.961       0.429
 C          12.206      -5.142       0.113
 C          10.112       1.190      -0.265
 C           9.889     -13.869       0.460
 C          20.975      -2.709       0.355
 C          18.701     -11.541       0.005
 C          20.238      -3.961       0.394
 C          18.170       2.348      -0.446
 C          17.954     -12.790       0.136
 C          18.785      -3.948       0.304
 C          16.721       2.366      -0.524
 C          16.480     -12.734       0.097
 C          18.036      -5.209       0.231
 C          15.955       1.134      -0.536
 C          15.736     -13.960       0.277
 C          16.597      -5.188       0.014
 C          14.481       1.151      -0.560
 C          14.291     -13.942       0.266
 C          15.843      -6.431      -0.100
 C          13.758      -0.116      -0.510
 C          13.543     -15.198       0.521
 C          14.383      -6.419      -0.129
 C          12.292      -0.106      -0.398
 C          12.095     -15.164       0.591
 C          20.936      -5.230       0.449
 C          18.857       1.075      -0.277
 C          18.663     -14.052       0.497
 C          20.227      -6.476       0.330
 C          18.097      -0.175      -0.292
 C          17.892     -15.239       0.636
 C          18.726      -6.474       0.122
 C          16.635      -0.158      -0.458
 C          16.437     -15.233       0.555
 C          17.996      -7.725      -0.046
 C          15.682     -16.462       0.651
 C          16.536      -7.707      -0.223
 C          14.282     -16.445       0.640
 C          20.902      -7.773       0.344
 C          20.168      -9.000       0.268
 C          18.721      -8.984       0.064
 C          20.849     -10.289       0.298
 C          20.183     -11.532       0.172
 C          11.484      -6.385      -0.019
 C          21.017       2.325      -0.152
 C          20.856     -12.823       0.415
 C          20.313       1.064      -0.086
 C          20.134     -13.999       0.572
 C          21.006      -0.183       0.074
 C           9.987      -6.352       0.116
 C          10.034      -3.831       0.173
 C          10.057      -1.327      -0.037
 C           9.332      -2.564       0.105
 C           9.305      -5.089       0.191
 C           9.282      -7.633       0.111
 C           9.383      -0.033      -0.141
