   142
 frame    580
 H          22.172       4.851      -0.067
 H          20.938       7.032      -0.099
 H          18.753       8.311      -0.074
 H          14.063       9.635      -0.055
 H          16.571       9.603      -0.037
 H           9.637       7.173      -0.196
 H           8.348       5.026      -0.217
 H          11.850       8.399      -0.126
 H           8.142     -10.125       0.251
 H           8.313       2.496      -0.186
 H           8.113     -12.652       0.384
 H           9.346     -14.828       0.525
 H          11.529     -16.106       0.629
 H          16.217     -17.428       0.736
 H          13.711     -17.396       0.717
 H          20.647     -14.970       0.637
 H          22.082      -2.727       0.249
 H          22.049      -5.248       0.355
 H          22.011      -7.770       0.426
 H          21.972     -10.296       0.489
 H          22.143       2.322       0.013
 H          21.936     -12.823       0.564
 H          18.431     -16.193       0.686
 H          22.114      -0.204       0.122
 H           8.238      -2.554      -0.062
 H           8.203      -5.077       0.031
 H           8.170      -7.600       0.134
 H           8.273      -0.032      -0.137
 C          18.885       3.636      -0.033
 C          20.352       3.622       0.047
 C          21.056       4.906       0.032
 C          16.719       4.877      -0.114
 C          18.158       4.878      -0.063
 C          18.885       6.151      -0.014
 C          20.357       6.106       0.043
 C          12.363       4.950      -0.128
 C          13.803       4.919      -0.149
 C          14.546       6.156      -0.128
 C          15.998       6.126      -0.106
 C          16.726       7.391      -0.123
 C          18.165       7.374      -0.032
 C          11.657       6.248      -0.078
 C          12.418       7.448      -0.082
 C          13.858       7.435      -0.169
 C          14.621       8.689      -0.167
 C          15.999       8.666      -0.144
 C           9.461       5.054      -0.094
 C          10.191       6.234      -0.041
 C          13.639      -7.634       0.416
 C          12.188      -7.632       0.299
 C          11.455      -8.913       0.292
 C           9.974      -8.883       0.146
 C          11.571      -1.354      -0.180
 C           9.254     -10.147       0.248
 C          15.792      -8.896       0.608
 C          14.354      -8.872       0.585
 C          15.911      -1.389      -0.074
 C          13.625     -10.163       0.472
 C          14.445      -1.371      -0.100
 C          12.151     -10.178       0.359
 C          13.717      -2.625      -0.262
 C          11.600       3.733      -0.132
 C          11.402     -11.439       0.358
 C          12.264      -2.619      -0.284
 C          10.133       3.747      -0.087
 C           9.929     -11.397       0.427
 C          11.548      -3.863      -0.281
 C           9.430       2.505      -0.170
 C           9.229     -12.691       0.496
 C          20.265      -1.435       0.004
 C          17.967     -10.249       0.444
 C          18.792      -1.442      -0.063
 C          16.486     -10.201       0.530
 C          18.066      -2.700      -0.173
 C          15.963       3.661      -0.041
 C          15.766     -11.466       0.460
 C          16.610      -2.661      -0.185
 C          14.519       3.681      -0.061
 C          14.314     -11.447       0.447
 C          13.798       2.421       0.057
 C          13.560     -12.676       0.425
 C          15.875      -3.930      -0.217
 C          14.421      -3.903      -0.249
 C          12.319       2.458      -0.048
 C          12.122     -12.673       0.438
 C          13.681      -5.175      -0.172
 C          11.594       1.205      -0.046
 C          11.394     -13.944       0.573
 C          12.227      -5.123      -0.185
 C          10.115       1.215      -0.175
 C           9.931     -13.889       0.618
 C          20.965      -2.711       0.100
 C          18.692     -11.525       0.466
 C          20.252      -3.967       0.054
 C          18.130       2.386       0.029
 C          17.931     -12.742       0.519
 C          18.760      -3.958      -0.138
 C          16.646       2.384       0.099
 C          16.493     -12.710       0.445
 C          18.038      -5.199      -0.075
 C          15.917       1.088       0.267
 C          15.746     -13.939       0.537
 C          16.583      -5.209      -0.111
 C          14.493       1.110       0.246
 C          14.279     -13.930       0.522
 C          15.838      -6.446       0.105
 C          13.742      -0.120       0.160
 C          13.553     -15.198       0.558
 C          14.386      -6.428       0.075
 C          12.295      -0.088       0.047
 C          12.117     -15.168       0.619
 C          20.930      -5.244       0.199
 C          18.831       1.109       0.064
 C          18.621     -14.030       0.666
 C          20.197      -6.499       0.188
 C          18.089      -0.154       0.130
 C          17.875     -15.240       0.687
 C          18.723      -6.459       0.145
 C          16.643      -0.156       0.211
 C          16.435     -15.225       0.573
 C          17.986      -7.705       0.394
 C          15.669     -16.470       0.619
 C          16.540      -7.666       0.475
 C          14.289     -16.464       0.607
 C          20.898      -7.775       0.223
 C          20.189      -9.017       0.335
 C          18.695      -9.004       0.404
 C          20.860     -10.293       0.449
 C          20.154     -11.522       0.584
 C          11.500      -6.368      -0.000
 C          21.023       2.360      -0.004
 C          20.820     -12.839       0.655
 C          20.313       1.086      -0.019
 C          20.087     -14.016       0.733
 C          20.995      -0.184      -0.055
 C          10.025      -6.378      -0.013
 C          10.048      -3.840      -0.155
 C          10.091      -1.305      -0.192
 C           9.362      -2.567      -0.137
 C           9.327      -5.100      -0.055
 C           9.294      -7.634      -0.011
 C           9.398      -0.028      -0.277
