   142
 frame    169
 H          22.172       4.851      -0.067
 H          20.938       7.032      -0.099
 H          18.753       8.311      -0.074
 H          14.063       9.635      -0.055
 H          16.571       9.603      -0.037
 H           9.637       7.173      -0.196
 H           8.348       5.026      -0.217
 H          11.850       8.399      -0.126
 H           8.142     -10.125       0.251
 H           8.313       2.496      -0.186
 H           8.113     -12.652       0.384
 H           9.346     -14.828       0.525
 H          11.529     -16.106       0.629
 H          16.217     -17.428       0.736
 H          13.711     -17.396       0.717
 H          20.647     -14.970       0.637
 H          22.082      -2.727       0.249
 H          22.049      -5.248       0.355
 H          22.011      -7.770       0.426
 H          21.972     -10.296       0.489
 H          22.143       2.322       0.013
 H          21.936     -12.823       0.564
 H          18.431     -16.193       0.686
 H          22.114      -0.204       0.122
 H           8.238      -2.554      -0.062
 H           8.203      -5.077       0.031
 H           8.170      -7.600       0.134
 H           8.273      -0.032      -0.137
 C          18.876       3.594      -0.047
 C          20.361       3.579      -0.016
 C          21.093       4.865       0.135
 C          16.700       4.880      -0.102
 C          18.177       4.872       0.016
 C          18.944       6.140       0.255
 C          20.439       6.091       0.287
 C          12.341       4.946      -0.040
 C          13.818       4.917      -0.127
 C          14.555       6.170       0.019
 C          15.993       6.147       0.042
 C          16.744       7.399       0.093
 C          18.204       7.368       0.157
 C          11.608       6.231       0.196
 C          12.373       7.441       0.110
 C          13.826       7.433       0.065
 C          14.601       8.662      -0.025
 C          16.001       8.651      -0.021
 C           9.428       5.015      -0.001
 C          10.109       6.219       0.171
 C          13.628      -7.661      -0.171
 C          12.153      -7.656      -0.281
 C          11.428      -8.898      -0.053
 C           9.954      -8.893      -0.056
 C          11.515      -1.357      -0.643
 C           9.232     -10.161       0.100
 C          15.824      -8.943      -0.005
 C          14.332      -8.925      -0.018
 C          15.926      -1.434      -0.323
 C          13.589     -10.158       0.250
 C          14.439      -1.414      -0.366
 C          12.129     -10.132       0.239
 C          13.692      -2.650      -0.509
 C          11.609       3.689      -0.139
 C          11.402     -11.396       0.360
 C          12.237      -2.638      -0.706
 C          10.130       3.708      -0.147
 C           9.927     -11.382       0.364
 C          11.496      -3.876      -0.598
 C           9.410       2.492      -0.324
 C           9.192     -12.659       0.602
 C          20.336      -1.441      -0.202
 C          17.989     -10.205       0.341
 C          18.865      -1.444      -0.507
 C          16.532     -10.198       0.289
 C          18.113      -2.716      -0.581
 C          15.972       3.609      -0.150
 C          15.777     -11.443       0.374
 C          16.653      -2.688      -0.445
 C          14.514       3.628      -0.152
 C          14.310     -11.427       0.343
 C          13.756       2.380      -0.193
 C          13.562     -12.680       0.442
 C          15.885      -3.938      -0.402
 C          14.410      -3.916      -0.453
 C          12.303       2.396      -0.184
 C          12.094     -12.659       0.536
 C          13.657      -5.168      -0.414
 C          11.568       1.152      -0.404
 C          11.345     -13.910       0.860
 C          12.202      -5.149      -0.615
 C          10.092       1.196      -0.398
 C           9.846     -13.866       0.851
 C          20.999      -2.724      -0.026
 C          18.684     -11.484       0.470
 C          20.294      -3.978      -0.129
 C          18.151       2.318      -0.101
 C          17.956     -12.734       0.613
 C          18.826      -3.971      -0.449
 C          16.704       2.343      -0.148
 C          16.488     -12.713       0.487
 C          18.086      -5.221      -0.492
 C          15.965       1.077      -0.358
 C          15.735     -13.953       0.680
 C          16.622      -5.203      -0.352
 C          14.462       1.102      -0.381
 C          14.280     -13.935       0.667
 C          15.862      -6.431      -0.152
 C          13.730      -0.150      -0.432
 C          13.521     -15.182       0.777
 C          14.366      -6.416      -0.179
 C          12.256      -0.118      -0.543
 C          12.068     -15.152       0.829
 C          20.966      -5.243       0.077
 C          18.864       1.049      -0.266
 C          18.667     -14.006       0.940
 C          20.273      -6.513      -0.008
 C          18.148      -0.196      -0.432
 C          17.913     -15.227       0.882
 C          18.800      -6.492      -0.310
 C          16.669      -0.188      -0.387
 C          16.456     -15.224       0.800
 C          18.049      -7.727      -0.163
 C          15.672     -16.456       0.734
 C          16.576      -7.698      -0.110
 C          14.270     -16.433       0.722
 C          20.927      -7.780       0.190
 C          20.209      -9.019       0.143
 C          18.737      -8.983       0.087
 C          20.885     -10.300       0.314
 C          20.161     -11.507       0.529
 C          11.443      -6.405      -0.476
 C          21.050       2.342      -0.154
 C          20.854     -12.804       0.751
 C          20.341       1.065      -0.234
 C          20.167     -13.996       0.957
 C          21.029      -0.186      -0.110
 C           9.953      -6.383      -0.234
 C          10.006      -3.850      -0.356
 C          10.029      -1.315      -0.409
 C           9.327      -2.581      -0.285
 C           9.296      -5.099      -0.186
 C           9.270      -7.635      -0.053
 C           9.368      -0.035      -0.321
