   142
 frame    222
 H          22.172       4.851      -0.067
 H          20.938       7.032      -0.099
 H          18.753       8.311      -0.074
 H          14.063       9.635      -0.055
 H          16.571       9.603      -0.037
 H           9.637       7.173      -0.196
 H           8.348       5.026      -0.217
 H          11.850       8.399      -0.126
 H           8.142     -10.125       0.251
 H           8.313       2.496      -0.186
 H           8.113     -12.652       0.384
 H           9.346     -14.828       0.525
 H          11.529     -16.106       0.629
 H          16.217     -17.428       0.736
 H          13.711     -17.396       0.717
 H          20.647     -14.970       0.637
 H          22.082      -2.727       0.249
 H          22.049      -5.248       0.355
 H          22.011      -7.770       0.426
 H          21.972     -10.296       0.489
 H          22.143       2.322       0.013
 H          21.936     -12.823       0.564
 H          18.431     -16.193       0.686
 H          22.114      -0.204       0.122
 H           8.238      -2.554      -0.062
 H           8.203      -5.077       0.031
 H           8.170      -7.600       0.134
 H           8.273      -0.032      -0.137
 C          18.858       3.604      -0.219
 C          20.338       3.577      -0.123
 C          21.052       4.845      -0.167
 C          16.711       4.888       0.056
 C          18.150       4.868      -0.128
 C          18.900       6.117      -0.211
 C          20.375       6.055      -0.231
 C          12.371       4.941      -0.206
 C          13.807       4.924       0.013
 C          14.532       6.173       0.248
 C          16.010       6.153       0.281
 C          16.769       7.398       0.078
 C          18.194       7.353      -0.177
 C          11.656       6.215      -0.275
 C          12.384       7.432      -0.217
 C          13.809       7.438       0.048
 C          14.604       8.663       0.029
 C          16.003       8.647       0.023
 C           9.467       4.996      -0.283
 C          10.174       6.189      -0.323
 C          13.632      -7.681      -0.351
 C          12.171      -7.641      -0.248
 C          11.429      -8.908      -0.169
 C           9.947      -8.895      -0.038
 C          11.520      -1.362      -0.479
 C           9.241     -10.155       0.205
 C          15.810      -8.969      -0.173
 C          14.356      -8.956      -0.207
 C          15.946      -1.390      -0.714
 C          13.612     -10.217      -0.001
 C          14.449      -1.374      -0.729
 C          12.147     -10.169      -0.021
 C          13.700      -2.624      -0.643
 C          11.633       3.689      -0.303
 C          11.427     -11.413       0.186
 C          12.236      -2.637      -0.449
 C          10.155       3.699      -0.255
 C           9.941     -11.380       0.252
 C          11.497      -3.864      -0.395
 C           9.427       2.489      -0.228
 C           9.220     -12.656       0.306
 C          20.322      -1.454      -0.129
 C          17.979     -10.240       0.090
 C          18.845      -1.450      -0.312
 C          16.510     -10.247       0.052
 C          18.103      -2.708      -0.321
 C          15.980       3.662      -0.141
 C          15.777     -11.485       0.359
 C          16.644      -2.662      -0.585
 C          14.512       3.676      -0.165
 C          14.310     -11.472       0.330
 C          13.772       2.440      -0.421
 C          13.564     -12.687       0.584
 C          15.885      -3.928      -0.606
 C          14.432      -3.913      -0.627
 C          12.318       2.427      -0.442
 C          12.137     -12.675       0.363
 C          13.665      -5.182      -0.561
 C          11.566       1.167      -0.518
 C          11.388     -13.922       0.356
 C          12.198      -5.119      -0.367
 C          10.086       1.193      -0.391
 C           9.897     -13.867       0.313
 C          21.014      -2.729      -0.051
 C          18.666     -11.500       0.296
 C          20.287      -3.964       0.034
 C          18.146       2.354      -0.362
 C          17.917     -12.742       0.437
 C          18.799      -3.956      -0.213
 C          16.689       2.399      -0.377
 C          16.484     -12.722       0.623
 C          18.075      -5.187      -0.236
 C          15.949       1.115      -0.508
 C          15.744     -13.944       0.916
 C          16.611      -5.216      -0.490
 C          14.487       1.139      -0.523
 C          14.263     -13.923       0.909
 C          15.876      -6.474      -0.542
 C          13.733      -0.115      -0.595
 C          13.522     -15.180       0.744
 C          14.377      -6.460      -0.567
 C          12.272      -0.110      -0.500
 C          12.097     -15.151       0.465
 C          20.974      -5.228       0.047
 C          18.873       1.079      -0.393
 C          18.640     -14.007       0.455
 C          20.245      -6.489       0.065
 C          18.135      -0.182      -0.394
 C          17.894     -15.218       0.530
 C          18.777      -6.462      -0.135
 C          16.675      -0.154      -0.539
 C          16.462     -15.220       0.762
 C          18.031      -7.716      -0.122
 C          15.675     -16.453       0.773
 C          16.574      -7.717      -0.281
 C          14.276     -16.429       0.759
 C          20.944      -7.767       0.129
 C          20.210      -9.025       0.157
 C          18.736      -8.994      -0.039
 C          20.874     -10.302       0.411
 C          20.145     -11.507       0.408
 C          11.450      -6.377      -0.304
 C          21.038       2.350      -0.057
 C          20.830     -12.799       0.455
 C          20.344       1.070      -0.230
 C          20.124     -13.992       0.437
 C          21.052      -0.207      -0.168
 C           9.980      -6.358      -0.166
 C          10.011      -3.835      -0.199
 C          10.044      -1.329      -0.335
 C           9.316      -2.588      -0.306
 C           9.290      -5.089      -0.216
 C           9.247      -7.615      -0.113
 C           9.341      -0.061      -0.375
