   142
 frame    506
 H          22.172       4.851      -0.067
 H          20.938       7.032      -0.099
 H          18.753       8.311      -0.074
 H          14.063       9.635      -0.055
 H          16.571       9.603      -0.037
 H           9.637       7.173      -0.196
 H           8.348       5.026      -0.217
 H          11.850       8.399      -0.126
 H           8.142     -10.125       0.251
 H           8.313       2.496      -0.186
 H           8.113     -12.652       0.384
 H           9.346     -14.828       0.525
 H          11.529     -16.106       0.629
 H          16.217     -17.428       0.736
 H          13.711     -17.396       0.717
 H          20.647     -14.970       0.637
 H          22.082      -2.727       0.249
 H          22.049      -5.248       0.355
 H          22.011      -7.770       0.426
 H          21.972     -10.296       0.489
 H          22.143       2.322       0.013
 H          21.936     -12.823       0.564
 H          18.431     -16.193       0.686
 H          22.114      -0.204       0.122
 H           8.238      -2.554      -0.062
 H           8.203      -5.077       0.031
 H           8.170      -7.600       0.134
 H           8.273      -0.032      -0.137
 C          18.866       3.597      -0.105
 C          20.327       3.577       0.018
 C          21.063       4.869      -0.037
 C          16.690       4.864      -0.224
 C          18.151       4.856      -0.222
 C          18.925       6.120      -0.300
 C          20.407       6.072      -0.209
 C          12.376       4.931      -0.285
 C          13.830       4.895      -0.249
 C          14.551       6.178      -0.199
 C          16.003       6.158      -0.180
 C          16.757       7.394      -0.251
 C          18.209       7.363      -0.314
 C          11.627       6.215      -0.366
 C          12.371       7.440      -0.365
 C          13.823       7.433      -0.267
 C          14.610       8.683      -0.209
 C          16.000       8.665      -0.192
 C           9.460       5.004      -0.178
 C          10.148       6.193      -0.312
 C          13.628      -7.638      -0.221
 C          12.175      -7.632       0.064
 C          11.426      -8.876       0.044
 C           9.956      -8.886       0.164
 C          11.540      -1.349      -0.100
 C           9.244     -10.146       0.340
 C          15.822      -8.911      -0.316
 C          14.354      -8.895      -0.356
 C          15.912      -1.453      -0.252
 C          13.621     -10.151      -0.163
 C          14.446      -1.438      -0.279
 C          12.143     -10.143       0.073
 C          13.706      -2.645      -0.030
 C          11.624       3.690      -0.213
 C          11.416     -11.394       0.309
 C          12.253      -2.624      -0.000
 C          10.155       3.713      -0.109
 C           9.946     -11.377       0.390
 C          11.546      -3.861      -0.048
 C           9.421       2.495      -0.107
 C           9.224     -12.658       0.432
 C          20.273      -1.436       0.054
 C          17.983     -10.212       0.165
 C          18.822      -1.437       0.047
 C          16.505     -10.191      -0.110
 C          18.071      -2.700       0.097
 C          15.972       3.596      -0.356
 C          15.771     -11.431       0.126
 C          16.617      -2.684       0.026
 C          14.520       3.609      -0.384
 C          14.324     -11.416       0.106
 C          13.795       2.350      -0.571
 C          13.590     -12.666       0.299
 C          15.871      -3.908       0.201
 C          14.416      -3.892       0.186
 C          12.310       2.405      -0.344
 C          12.135     -12.658       0.279
 C          13.680      -5.134       0.039
 C          11.564       1.154      -0.279
 C          11.362     -13.929       0.261
 C          12.222      -5.117       0.066
 C          10.092       1.201      -0.184
 C           9.882     -13.874       0.357
 C          20.965      -2.707       0.116
 C          18.668     -11.478       0.404
 C          20.246      -3.963       0.185
 C          18.146       2.334      -0.258
 C          17.923     -12.728       0.350
 C          18.741      -3.957       0.094
 C          16.667       2.317      -0.522
 C          16.465     -12.708       0.326
 C          18.034      -5.194       0.170
 C          15.947       1.034      -0.638
 C          15.741     -13.979       0.423
 C          16.581      -5.171       0.079
 C          14.492       1.053      -0.659
 C          14.278     -13.957       0.413
 C          15.848      -6.400      -0.120
 C          13.733      -0.164      -0.448
 C          13.514     -15.194       0.410
 C          14.381      -6.387      -0.137
 C          12.284      -0.108      -0.172
 C          12.062     -15.177       0.337
 C          20.943      -5.241       0.204
 C          18.862       1.069      -0.162
 C          18.661     -14.021       0.343
 C          20.211      -6.495       0.240
 C          18.109      -0.178      -0.075
 C          17.917     -15.249       0.396
 C          18.753      -6.460       0.210
 C          16.663      -0.200      -0.381
 C          16.477     -15.228       0.433
 C          18.013      -7.699       0.160
 C          15.680     -16.467       0.541
 C          16.570      -7.675      -0.160
 C          14.282     -16.450       0.535
 C          20.896      -7.758       0.343
 C          20.195      -9.014       0.345
 C          18.730      -8.972       0.172
 C          20.865     -10.292       0.538
 C          20.123     -11.506       0.534
 C          11.469      -6.371       0.060
 C          21.041       2.357       0.061
 C          20.829     -12.804       0.562
 C          20.331       1.072      -0.019
 C          20.145     -14.002       0.470
 C          21.002      -0.196       0.059
 C          10.007      -6.374       0.017
 C          10.033      -3.836      -0.028
 C          10.088      -1.311      -0.158
 C           9.358      -2.555      -0.148
 C           9.314      -5.099      -0.063
 C           9.281      -7.613       0.094
 C           9.387      -0.060      -0.161
