   142
 frame    820
 H          22.172       4.851      -0.067
 H          20.938       7.032      -0.099
 H          18.753       8.311      -0.074
 H          14.063       9.635      -0.055
 H          16.571       9.603      -0.037
 H           9.637       7.173      -0.196
 H           8.348       5.026      -0.217
 H          11.850       8.399      -0.126
 H           8.142     -10.125       0.251
 H           8.313       2.496      -0.186
 H           8.113     -12.652       0.384
 H           9.346     -14.828       0.525
 H          11.529     -16.106       0.629
 H          16.217     -17.428       0.736
 H          13.711     -17.396       0.717
 H          20.647     -14.970       0.637
 H          22.082      -2.727       0.249
 H          22.049      -5.248       0.355
 H          22.011      -7.770       0.426
 H          21.972     -10.296       0.489
 H          22.143       2.322       0.013
 H          21.936     -12.823       0.564
 H          18.431     -16.193       0.686
 H          22.114      -0.204       0.122
 H           8.238      -2.554      -0.062
 H           8.203      -5.077       0.031
 H           8.170      -7.600       0.134
 H           8.273      -0.032      -0.137
 C          18.858       3.578       0.057
 C          20.342       3.549      -0.042
 C          21.091       4.837       0.062
 C          16.685       4.896       0.088
 C          18.132       4.846       0.016
 C          18.925       6.092       0.019
 C          20.419       6.046       0.050
 C          12.386       4.909      -0.039
 C          13.827       4.926       0.039
 C          14.544       6.229       0.122
 C          16.004       6.206       0.128
 C          16.748       7.444       0.037
 C          18.201       7.339       0.037
 C          11.631       6.189      -0.052
 C          12.375       7.423      -0.015
 C          13.833       7.485       0.011
 C          14.614       8.686      -0.160
 C          16.001       8.666      -0.158
 C           9.433       4.982      -0.074
 C          10.134       6.174      -0.070
 C          13.639      -7.623       1.034
 C          12.166      -7.630       0.731
 C          11.405      -8.871       0.685
 C           9.954      -8.849       0.368
 C          11.516      -1.301       0.332
 C           9.255     -10.104       0.208
 C          15.797      -8.957       1.227
 C          14.321      -8.940       1.217
 C          15.911      -1.414       0.785
 C          13.556     -10.198       0.986
 C          14.418      -1.405       0.770
 C          12.099     -10.145       0.800
 C          13.645      -2.635       0.540
 C          11.622       3.675      -0.030
 C          11.425     -11.383       0.460
 C          12.170      -2.596       0.391
 C          10.148       3.681      -0.191
 C           9.946     -11.363       0.302
 C          11.411      -3.851       0.418
 C           9.417       2.438      -0.224
 C           9.189     -12.628       0.516
 C          20.301      -1.435       0.383
 C          17.997     -10.211       0.907
 C          18.833      -1.391       0.493
 C          16.530     -10.230       1.042
 C          18.141      -2.670       0.521
 C          15.967       3.628       0.274
 C          15.762     -11.427       0.822
 C          16.659      -2.673       0.601
 C          14.504       3.645       0.256
 C          14.303     -11.409       0.795
 C          13.736       2.456       0.520
 C          13.594     -12.690       0.645
 C          15.889      -3.910       0.474
 C          14.396      -3.890       0.436
 C          12.268       2.433       0.366
 C          12.154     -12.641       0.553
 C          13.611      -5.112       0.609
 C          11.544       1.178       0.324
 C          11.357     -13.892       0.619
 C          12.133      -5.119       0.492
 C          10.094       1.180       0.019
 C           9.864     -13.831       0.611
 C          21.015      -2.703       0.432
 C          18.651     -11.470       0.575
 C          20.333      -3.958       0.549
 C          18.159       2.354       0.450
 C          17.898     -12.715       0.625
 C          18.861      -3.938       0.578
 C          16.693       2.426       0.570
 C          16.451     -12.725       0.677
 C          18.111      -5.187       0.626
 C          15.927       1.198       0.858
 C          15.735     -14.012       0.801
 C          16.623      -5.147       0.704
 C          14.466       1.215       0.834
 C          14.275     -13.994       0.787
 C          15.844      -6.369       0.988
 C          13.741      -0.096       0.748
 C          13.530     -15.228       0.723
 C          14.353      -6.348       0.948
 C          12.272      -0.066       0.444
 C          12.078     -15.134       0.713
 C          20.985      -5.231       0.546
 C          18.867       1.090       0.463
 C          18.665     -13.979       0.710
 C          20.244      -6.479       0.582
 C          18.103      -0.138       0.574
 C          17.913     -15.207       0.759
 C          18.763      -6.480       0.700
 C          16.623      -0.131       0.801
 C          16.450     -15.260       0.747
 C          17.998      -7.706       0.859
 C          15.672     -16.478       0.585
 C          16.519      -7.657       1.094
 C          14.284     -16.463       0.575
 C          20.903      -7.751       0.546
 C          20.188      -8.977       0.574
 C          18.732      -8.959       0.836
 C          20.860     -10.244       0.416
 C          20.131     -11.487       0.472
 C          11.445      -6.394       0.532
 C          21.037       2.297      -0.043
 C          20.857     -12.779       0.697
 C          20.333       1.055       0.204
 C          20.155     -13.966       0.739
 C          21.011      -0.190       0.239
 C           9.967      -6.358       0.355
 C           9.945      -3.829       0.310
 C          10.042      -1.304       0.153
 C           9.300      -2.562       0.162
 C           9.254      -5.082       0.279
 C           9.261      -7.611       0.295
 C           9.369      -0.045       0.016
