   142
 frame    424
 H          22.172       4.851      -0.067
 H          20.938       7.032      -0.099
 H          18.753       8.311      -0.074
 H          14.063       9.635      -0.055
 H          16.571       9.603      -0.037
 H           9.637       7.173      -0.196
 H           8.348       5.026      -0.217
 H          11.850       8.399      -0.126
 H           8.142     -10.125       0.251
 H           8.313       2.496      -0.186
 H           8.113     -12.652       0.384
 H           9.346     -14.828       0.525
 H          11.529     -16.106       0.629
 H          16.217     -17.428       0.736
 H          13.711     -17.396       0.717
 H          20.647     -14.970       0.637
 H          22.082      -2.727       0.249
 H          22.049      -5.248       0.355
 H          22.011      -7.770       0.426
 H          21.972     -10.296       0.489
 H          22.143       2.322       0.013
 H          21.936     -12.823       0.564
 H          18.431     -16.193       0.686
 H          22.114      -0.204       0.122
 H           8.238      -2.554      -0.062
 H           8.203      -5.077       0.031
 H           8.170      -7.600       0.134
 H           8.273      -0.032      -0.137
 C          18.926       3.589      -0.604
 C          20.371       3.546      -0.334
 C          21.058       4.854      -0.207
 C          16.712       4.888      -0.524
 C          18.178       4.854      -0.518
 C          18.917       6.144      -0.406
 C          20.389       6.073      -0.310
 C          12.346       4.924      -0.579
 C          13.819       4.914      -0.539
 C          14.555       6.153      -0.442
 C          16.000       6.137      -0.426
 C          16.739       7.379      -0.241
 C          18.197       7.361      -0.271
 C          11.638       6.241      -0.489
 C          12.381       7.437      -0.324
 C          13.836       7.417      -0.250
 C          14.603       8.642      -0.034
 C          16.009       8.619      -0.024
 C           9.468       5.007      -0.335
 C          10.163       6.206      -0.409
 C          13.649      -7.692      -0.042
 C          12.160      -7.639       0.016
 C          11.405      -8.877      -0.255
 C           9.927      -8.846      -0.217
 C          11.506      -1.340      -0.140
 C           9.236     -10.115      -0.032
 C          15.812      -8.991      -0.088
 C          14.346      -8.978      -0.116
 C          15.915      -1.388      -0.252
 C          13.579     -10.188      -0.381
 C          14.453      -1.368      -0.288
 C          12.093     -10.162      -0.397
 C          13.669      -2.624      -0.312
 C          11.572       3.683      -0.706
 C          11.361     -11.432      -0.230
 C          12.204      -2.605      -0.107
 C          10.124       3.676      -0.483
 C           9.918     -11.364       0.014
 C          11.455      -3.859      -0.067
 C           9.410       2.451      -0.445
 C           9.226     -12.664       0.242
 C          20.325      -1.445       0.046
 C          18.040     -10.232      -0.304
 C          18.846      -1.429       0.021
 C          16.559     -10.223      -0.334
 C          18.129      -2.672       0.019
 C          15.982       3.631      -0.674
 C          15.788     -11.475      -0.213
 C          16.664      -2.659      -0.232
 C          14.526       3.646      -0.688
 C          14.317     -11.454      -0.240
 C          13.765       2.390      -0.759
 C          13.583     -12.700      -0.009
 C          15.920      -3.917      -0.189
 C          14.381      -3.904      -0.222
 C          12.282       2.402      -0.775
 C          12.103     -12.685      -0.026
 C          13.632      -5.174      -0.216
 C          11.544       1.142      -0.576
 C          11.364     -13.965       0.163
 C          12.166      -5.142      -0.012
 C          10.065       1.154      -0.558
 C           9.895     -13.890       0.224
 C          21.004      -2.673       0.301
 C          18.737     -11.520      -0.120
 C          20.306      -3.957       0.288
 C          18.189       2.320      -0.693
 C          17.962     -12.753       0.053
 C          18.841      -3.950       0.097
 C          16.712       2.352      -0.702
 C          16.481     -12.736       0.013
 C          18.095      -5.214       0.115
 C          15.943       1.154      -0.385
 C          15.737     -13.968       0.165
 C          16.633      -5.208      -0.135
 C          14.485       1.174      -0.414
 C          14.292     -13.946       0.167
 C          15.848      -6.456      -0.084
 C          13.754      -0.092      -0.276
 C          13.535     -15.187       0.406
 C          14.376      -6.437      -0.116
 C          12.259      -0.099      -0.223
 C          12.085     -15.174       0.366
 C          20.965      -5.256       0.388
 C          18.884       1.050      -0.458
 C          18.664     -14.057       0.244
 C          20.263      -6.482       0.229
 C          18.130      -0.167      -0.123
 C          17.908     -15.245       0.426
 C          18.781      -6.471       0.185
 C          16.635      -0.132      -0.210
 C          16.450     -15.223       0.431
 C          18.028      -7.705       0.123
 C          15.679     -16.429       0.710
 C          16.539      -7.727       0.019
 C          14.268     -16.412       0.697
 C          20.959      -7.737       0.102
 C          20.237      -8.968      -0.033
 C          18.759      -8.963      -0.125
 C          20.887     -10.253       0.174
 C          20.176     -11.485       0.173
 C          11.433      -6.378       0.022
 C          21.050       2.297      -0.267
 C          20.823     -12.814       0.394
 C          20.368       1.022      -0.391
 C          20.126     -14.020       0.341
 C          21.053      -0.225      -0.187
 C           9.949      -6.357       0.003
 C           9.979      -3.833       0.061
 C          10.025      -1.319      -0.168
 C           9.317      -2.534       0.027
 C           9.278      -5.112       0.129
 C           9.236      -7.600      -0.151
 C           9.339      -0.072      -0.417
