   142
 frame    776
 H          22.172       4.851      -0.067
 H          20.938       7.032      -0.099
 H          18.753       8.311      -0.074
 H          14.063       9.635      -0.055
 H          16.571       9.603      -0.037
 H           9.637       7.173      -0.196
 H           8.348       5.026      -0.217
 H          11.850       8.399      -0.126
 H           8.142     -10.125       0.251
 H           8.313       2.496      -0.186
 H           8.113     -12.652       0.384
 H           9.346     -14.828       0.525
 H          11.529     -16.106       0.629
 H          16.217     -17.428       0.736
 H          13.711     -17.396       0.717
 H          20.647     -14.970       0.637
 H          22.082      -2.727       0.249
 H          22.049      -5.248       0.355
 H          22.011      -7.770       0.426
 H          21.972     -10.296       0.489
 H          22.143       2.322       0.013
 H          21.936     -12.823       0.564
 H          18.431     -16.193       0.686
 H          22.114      -0.204       0.122
 H           8.238      -2.554      -0.062
 H           8.203      -5.077       0.031
 H           8.170      -7.600       0.134
 H           8.273      -0.032      -0.137
 C          18.856       3.613       0.319
 C          20.302       3.584       0.136
 C          21.034       4.839      -0.076
 C          16.688       4.891       0.473
 C          18.151       4.863       0.352
 C          18.893       6.083      -0.033
 C          20.363       6.049      -0.211
 C          12.361       4.938       0.284
 C          13.812       4.923       0.432
 C          14.527       6.156       0.222
 C          16.006       6.137       0.221
 C          16.758       7.403       0.104
 C          18.178       7.351      -0.082
 C          11.663       6.166      -0.105
 C          12.403       7.427      -0.134
 C          13.816       7.441       0.074
 C          14.616       8.707       0.142
 C          15.992       8.687       0.153
 C           9.482       4.978      -0.188
 C          10.195       6.173      -0.309
 C          13.646      -7.656       0.639
 C          12.172      -7.647       0.590
 C          11.425      -8.909       0.556
 C           9.964      -8.874       0.459
 C          11.538      -1.312       0.333
 C           9.242     -10.135       0.483
 C          15.791      -8.930       0.802
 C          14.352      -8.909       0.777
 C          15.900      -1.366       0.387
 C          13.605     -10.149       0.844
 C          14.443      -1.354       0.353
 C          12.150     -10.148       0.695
 C          13.694      -2.581       0.498
 C          11.625       3.712       0.218
 C          11.424     -11.394       0.745
 C          12.238      -2.573       0.346
 C          10.185       3.709      -0.003
 C           9.971     -11.373       0.523
 C          11.518      -3.852       0.292
 C           9.409       2.489       0.047
 C           9.240     -12.642       0.409
 C          20.286      -1.430       0.267
 C          17.954     -10.224       0.810
 C          18.802      -1.403       0.483
 C          16.499     -10.189       0.906
 C          18.063      -2.655       0.496
 C          15.954       3.627       0.608
 C          15.756     -11.403       1.135
 C          16.605      -2.624       0.571
 C          14.508       3.650       0.598
 C          14.311     -11.386       1.114
 C          13.771       2.418       0.401
 C          13.583     -12.653       1.020
 C          15.866      -3.890       0.643
 C          14.404      -3.871       0.625
 C          12.313       2.451       0.251
 C          12.125     -12.643       0.874
 C          13.661      -5.145       0.615
 C          11.564       1.222       0.191
 C          11.393     -13.880       0.530
 C          12.194      -5.127       0.472
 C          10.095       1.221       0.098
 C           9.924     -13.852       0.336
 C          20.962      -2.720       0.247
 C          18.655     -11.491       0.867
 C          20.207      -3.963       0.319
 C          18.131       2.369       0.340
 C          17.918     -12.718       0.965
 C          18.763      -3.941       0.475
 C          16.665       2.381       0.439
 C          16.450     -12.689       1.068
 C          18.038      -5.198       0.610
 C          15.922       1.132       0.415
 C          15.737     -13.937       0.890
 C          16.564      -5.177       0.670
 C          14.484       1.152       0.398
 C          14.270     -13.918       0.870
 C          15.832      -6.426       0.605
 C          13.746      -0.093       0.348
 C          13.519     -15.188       0.782
 C          14.373      -6.412       0.576
 C          12.272      -0.048       0.312
 C          12.101     -15.143       0.571
 C          20.920      -5.227       0.353
 C          18.857       1.134       0.313
 C          18.631     -13.971       0.624
 C          20.217      -6.492       0.463
 C          18.104      -0.126       0.422
 C          17.885     -15.217       0.629
 C          18.740      -6.463       0.695
 C          16.635      -0.131       0.397
 C          16.456     -15.219       0.820
 C          18.004      -7.722       0.711
 C          15.668     -16.482       0.908
 C          16.537      -7.688       0.709
 C          14.283     -16.469       0.906
 C          20.900      -7.769       0.491
 C          20.185      -9.004       0.669
 C          18.709      -8.999       0.708
 C          20.865     -10.284       0.693
 C          20.103     -11.503       0.676
 C          11.464      -6.376       0.518
 C          21.036       2.360       0.225
 C          20.811     -12.790       0.565
 C          20.328       1.095       0.275
 C          20.103     -13.980       0.438
 C          21.006      -0.173       0.190
 C           9.992      -6.368       0.223
 C          10.081      -3.831       0.074
 C          10.063      -1.295       0.049
 C           9.359      -2.571      -0.015
 C           9.325      -5.079       0.081
 C           9.280      -7.631       0.244
 C           9.378      -0.024      -0.030
