   142
 frame    658
 H          22.172       4.851      -0.067
 H          20.938       7.032      -0.099
 H          18.753       8.311      -0.074
 H          14.063       9.635      -0.055
 H          16.571       9.603      -0.037
 H           9.637       7.173      -0.196
 H           8.348       5.026      -0.217
 H          11.850       8.399      -0.126
 H           8.142     -10.125       0.251
 H           8.313       2.496      -0.186
 H           8.113     -12.652       0.384
 H           9.346     -14.828       0.525
 H          11.529     -16.106       0.629
 H          16.217     -17.428       0.736
 H          13.711     -17.396       0.717
 H          20.647     -14.970       0.637
 H          22.082      -2.727       0.249
 H          22.049      -5.248       0.355
 H          22.011      -7.770       0.426
 H          21.972     -10.296       0.489
 H          22.143       2.322       0.013
 H          21.936     -12.823       0.564
 H          18.431     -16.193       0.686
 H          22.114      -0.204       0.122
 H           8.238      -2.554      -0.062
 H           8.203      -5.077       0.031
 H           8.170      -7.600       0.134
 H           8.273      -0.032      -0.137
 C          18.836       3.599       0.105
 C          20.324       3.594       0.042
 C          21.049       4.881      -0.001
 C          16.677       4.872       0.330
 C          18.107       4.843       0.165
 C          18.888       6.126       0.101
 C          20.368       6.086       0.026
 C          12.396       4.917       0.117
 C          13.837       4.911       0.304
 C          14.545       6.170       0.379
 C          15.997       6.155       0.388
 C          16.757       7.396       0.252
 C          18.203       7.371       0.148
 C          11.655       6.218       0.054
 C          12.376       7.444       0.111
 C          13.816       7.434       0.216
 C          14.605       8.656       0.031
 C          16.006       8.639       0.044
 C           9.466       5.023      -0.135
 C          10.175       6.216      -0.074
 C          13.665      -7.711       0.207
 C          12.194      -7.682       0.281
 C          11.421      -8.881       0.523
 C           9.953      -8.888       0.417
 C          11.570      -1.316      -0.064
 C           9.254     -10.162       0.345
 C          15.797      -8.947       0.601
 C          14.351      -8.927       0.574
 C          15.912      -1.381      -0.080
 C          13.566     -10.138       0.802
 C          14.452      -1.364      -0.111
 C          12.117     -10.143       0.680
 C          13.727      -2.626      -0.019
 C          11.639       3.694       0.012
 C          11.442     -11.393       0.517
 C          12.280      -2.601      -0.086
 C          10.156       3.723      -0.100
 C           9.956     -11.386       0.424
 C          11.547      -3.853      -0.026
 C           9.430       2.514      -0.088
 C           9.233     -12.676       0.476
 C          20.275      -1.436       0.150
 C          17.982     -10.217       0.782
 C          18.787      -1.406       0.075
 C          16.535     -10.175       0.865
 C          18.051      -2.670       0.029
 C          15.975       3.607       0.383
 C          15.768     -11.396       0.911
 C          16.600      -2.662       0.041
 C          14.498       3.620       0.380
 C          14.295     -11.378       0.888
 C          13.728       2.402       0.380
 C          13.589     -12.650       0.893
 C          15.872      -3.919       0.155
 C          14.424      -3.904       0.127
 C          12.284       2.430       0.246
 C          12.164     -12.630       0.694
 C          13.694      -5.160       0.095
 C          11.553       1.177       0.168
 C          11.395     -13.907       0.677
 C          12.243      -5.145       0.012
 C          10.091       1.223       0.047
 C           9.915     -13.876       0.580
 C          20.969      -2.691       0.267
 C          18.632     -11.483       0.631
 C          20.231      -3.962       0.233
 C          18.160       2.362       0.324
 C          17.881     -12.703       0.760
 C          18.746      -3.948       0.133
 C          16.708       2.369       0.414
 C          16.454     -12.681       0.926
 C          18.019      -5.216       0.133
 C          15.942       1.130       0.242
 C          15.731     -13.946       1.017
 C          16.563      -5.197       0.158
 C          14.486       1.147       0.223
 C          14.275     -13.921       1.002
 C          15.842      -6.466       0.096
 C          13.765      -0.064      -0.071
 C          13.516     -15.174       0.913
 C          14.376      -6.448       0.080
 C          12.285      -0.055       0.002
 C          12.073     -15.152       0.801
 C          20.930      -5.252       0.365
 C          18.864       1.087       0.273
 C          18.618     -13.998       0.756
 C          20.207      -6.495       0.354
 C          18.106      -0.129       0.086
 C          17.911     -15.223       0.860
 C          18.719      -6.493       0.277
 C          16.625      -0.113      -0.024
 C          16.469     -15.217       0.932
 C          17.996      -7.759       0.397
 C          15.679     -16.443       0.773
 C          16.521      -7.746       0.272
 C          14.273     -16.421       0.757
 C          20.884      -7.774       0.479
 C          20.196      -9.017       0.615
 C          18.724      -8.975       0.671
 C          20.856     -10.308       0.557
 C          20.109     -11.513       0.580
 C          11.501      -6.402       0.137
 C          21.025       2.365       0.073
 C          20.811     -12.817       0.615
 C          20.324       1.101       0.223
 C          20.108     -14.004       0.698
 C          20.986      -0.160       0.176
 C          10.010      -6.362       0.114
 C          10.064      -3.843      -0.001
 C          10.082      -1.312      -0.055
 C           9.352      -2.549       0.007
 C           9.316      -5.110       0.093
 C           9.298      -7.629       0.225
 C           9.397      -0.018      -0.057
