   142
 frame    226
 H          22.172       4.851      -0.067
 H          20.938       7.032      -0.099
 H          18.753       8.311      -0.074
 H          14.063       9.635      -0.055
 H          16.571       9.603      -0.037
 H           9.637       7.173      -0.196
 H           8.348       5.026      -0.217
 H          11.850       8.399      -0.126
 H           8.142     -10.125       0.251
 H           8.313       2.496      -0.186
 H           8.113     -12.652       0.384
 H           9.346     -14.828       0.525
 H          11.529     -16.106       0.629
 H          16.217     -17.428       0.736
 H          13.711     -17.396       0.717
 H          20.647     -14.970       0.637
 H          22.082      -2.727       0.249
 H          22.049      -5.248       0.355
 H          22.011      -7.770       0.426
 H          21.972     -10.296       0.489
 H          22.143       2.322       0.013
 H          21.936     -12.823       0.564
 H          18.431     -16.193       0.686
 H          22.114      -0.204       0.122
 H           8.238      -2.554      -0.062
 H           8.203      -5.077       0.031
 H           8.170      -7.600       0.134
 H           8.273      -0.032      -0.137
 C          18.868       3.602      -0.255
 C          20.335       3.581      -0.143
 C          21.052       4.862      -0.150
 C          16.731       4.903       0.039
 C          18.151       4.868      -0.198
 C          18.902       6.133      -0.249
 C          20.384       6.076      -0.223
 C          12.373       4.941      -0.273
 C          13.791       4.941      -0.004
 C          14.524       6.167       0.272
 C          16.018       6.147       0.306
 C          16.776       7.387       0.074
 C          18.192       7.364      -0.207
 C          11.649       6.231      -0.319
 C          12.386       7.443      -0.240
 C          13.802       7.427       0.039
 C          14.602       8.653       0.002
 C          16.007       8.632      -0.001
 C           9.468       5.009      -0.270
 C          10.166       6.207      -0.312
 C          13.624      -7.683      -0.382
 C          12.175      -7.641      -0.246
 C          11.432      -8.908      -0.122
 C           9.939      -8.895      -0.031
 C          11.523      -1.365      -0.469
 C           9.248     -10.163       0.183
 C          15.811      -8.973      -0.235
 C          14.361      -8.962      -0.270
 C          15.947      -1.392      -0.712
 C          13.625     -10.210       0.006
 C          14.446      -1.374      -0.725
 C          12.140     -10.174       0.006
 C          13.699      -2.638      -0.644
 C          11.623       3.690      -0.335
 C          11.415     -11.412       0.151
 C          12.253      -2.632      -0.455
 C          10.158       3.704      -0.276
 C           9.941     -11.389       0.228
 C          11.507      -3.863      -0.376
 C           9.426       2.498      -0.247
 C           9.215     -12.668       0.325
 C          20.322      -1.466      -0.124
 C          17.982     -10.242       0.113
 C          18.846      -1.456      -0.303
 C          16.497     -10.241       0.059
 C          18.090      -2.704      -0.330
 C          15.989       3.658      -0.117
 C          15.784     -11.475       0.379
 C          16.647      -2.673      -0.579
 C          14.506       3.674      -0.144
 C          14.305     -11.460       0.352
 C          13.789       2.435      -0.408
 C          13.553     -12.699       0.564
 C          15.896      -3.931      -0.623
 C          14.422      -3.915      -0.646
 C          12.312       2.433      -0.419
 C          12.134     -12.682       0.293
 C          13.665      -5.172      -0.560
 C          11.570       1.178      -0.471
 C          11.376     -13.940       0.317
 C          12.215      -5.123      -0.371
 C          10.078       1.201      -0.388
 C           9.883     -13.883       0.325
 C          21.019      -2.729      -0.032
 C          18.676     -11.499       0.265
 C          20.287      -3.966       0.057
 C          18.150       2.358      -0.333
 C          17.923     -12.745       0.368
 C          18.794      -3.954      -0.196
 C          16.667       2.393      -0.369
 C          16.500     -12.734       0.607
 C          18.057      -5.189      -0.238
 C          15.942       1.122      -0.570
 C          15.756     -13.935       0.939
 C          16.618      -5.206      -0.491
 C          14.495       1.140      -0.583
 C          14.253     -13.915       0.929
 C          15.881      -6.478      -0.539
 C          13.729      -0.119      -0.628
 C          13.511     -15.168       0.735
 C          14.375      -6.460      -0.566
 C          12.276      -0.114      -0.494
 C          12.094     -15.163       0.443
 C          20.985      -5.226       0.068
 C          18.869       1.093      -0.347
 C          18.647     -14.026       0.413
 C          20.244      -6.477       0.066
 C          18.128      -0.188      -0.386
 C          17.899     -15.233       0.510
 C          18.775      -6.459      -0.129
 C          16.684      -0.157      -0.576
 C          16.473     -15.212       0.752
 C          18.027      -7.708      -0.116
 C          15.678     -16.438       0.744
 C          16.582      -7.720      -0.317
 C          14.276     -16.420       0.733
 C          20.932      -7.759       0.156
 C          20.215      -9.022       0.166
 C          18.734      -9.000       0.009
 C          20.867     -10.306       0.390
 C          20.144     -11.517       0.382
 C          11.458      -6.371      -0.298
 C          21.036       2.356      -0.080
 C          20.831     -12.815       0.473
 C          20.350       1.074      -0.224
 C          20.138     -14.011       0.448
 C          21.036      -0.207      -0.142
 C           9.975      -6.348      -0.164
 C          10.004      -3.841      -0.179
 C          10.037      -1.338      -0.333
 C           9.308      -2.588      -0.289
 C           9.276      -5.083      -0.196
 C           9.256      -7.610      -0.085
 C           9.355      -0.060      -0.348
