   142
 frame    684
 H          22.172       4.851      -0.067
 H          20.938       7.032      -0.099
 H          18.753       8.311      -0.074
 H          14.063       9.635      -0.055
 H          16.571       9.603      -0.037
 H           9.637       7.173      -0.196
 H           8.348       5.026      -0.217
 H          11.850       8.399      -0.126
 H           8.142     -10.125       0.251
 H           8.313       2.496      -0.186
 H           8.113     -12.652       0.384
 H           9.346     -14.828       0.525
 H          11.529     -16.106       0.629
 H          16.217     -17.428       0.736
 H          13.711     -17.396       0.717
 H          20.647     -14.970       0.637
 H          22.082      -2.727       0.249
 H          22.049      -5.248       0.355
 H          22.011      -7.770       0.426
 H          21.972     -10.296       0.489
 H          22.143       2.322       0.013
 H          21.936     -12.823       0.564
 H          18.431     -16.193       0.686
 H          22.114      -0.204       0.122
 H           8.238      -2.554      -0.062
 H           8.203      -5.077       0.031
 H           8.170      -7.600       0.134
 H           8.273      -0.032      -0.137
 C          18.904       3.641       0.409
 C          20.402       3.573       0.265
 C          21.099       4.896       0.184
 C          16.753       4.968       0.394
 C          18.214       4.929       0.371
 C          18.948       6.205       0.277
 C          20.419       6.107       0.152
 C          12.297       5.001       0.311
 C          13.760       5.009       0.359
 C          14.534       6.236       0.468
 C          16.002       6.222       0.481
 C          16.751       7.454       0.327
 C          18.198       7.409       0.140
 C          11.601       6.294       0.212
 C          12.386       7.485       0.094
 C          13.809       7.490       0.307
 C          14.606       8.703       0.172
 C          15.996       8.689       0.181
 C           9.424       5.039       0.062
 C          10.131       6.232       0.067
 C          13.617      -7.653       0.455
 C          12.143      -7.634       0.313
 C          11.437      -8.894       0.377
 C           9.966      -8.863       0.233
 C          11.512      -1.344       0.064
 C           9.227     -10.136       0.361
 C          15.798      -8.951       0.518
 C          14.346      -8.928       0.489
 C          15.912      -1.392       0.174
 C          13.613     -10.209       0.627
 C          14.447      -1.376       0.155
 C          12.135     -10.179       0.652
 C          13.686      -2.631       0.020
 C          11.571       3.730       0.335
 C          11.366     -11.409       0.853
 C          12.216      -2.604       0.102
 C          10.084       3.701       0.136
 C           9.888     -11.351       0.652
 C          11.488      -3.856       0.187
 C           9.403       2.484      -0.086
 C           9.191     -12.679       0.655
 C          20.318      -1.447       0.199
 C          17.975     -10.258       0.764
 C          18.837      -1.438       0.214
 C          16.503     -10.250       0.666
 C          18.097      -2.685       0.238
 C          15.981       3.734       0.297
 C          15.783     -11.535       0.832
 C          16.641      -2.668       0.078
 C          14.500       3.748       0.278
 C          14.297     -11.517       0.815
 C          13.788       2.459       0.167
 C          13.522     -12.754       0.928
 C          15.895      -3.928      -0.098
 C          14.403      -3.910      -0.133
 C          12.320       2.469       0.208
 C          12.065     -12.702       0.884
 C          13.664      -5.158       0.105
 C          11.580       1.185       0.015
 C          11.340     -13.977       0.870
 C          12.188      -5.129       0.208
 C          10.101       1.185      -0.115
 C           9.866     -13.892       0.731
 C          20.994      -2.706       0.184
 C          18.713     -11.509       0.959
 C          20.262      -3.967       0.272
 C          18.135       2.403       0.279
 C          17.982     -12.780       0.956
 C          18.790      -3.948       0.356
 C          16.658       2.421       0.187
 C          16.526     -12.787       0.964
 C          18.056      -5.200       0.350
 C          15.927       1.127       0.136
 C          15.735     -14.010       1.111
 C          16.598      -5.190       0.172
 C          14.476       1.140       0.126
 C          14.267     -13.994       1.101
 C          15.846      -6.429       0.380
 C          13.720      -0.098       0.198
 C          13.513     -15.233       0.974
 C          14.372      -6.413       0.338
 C          12.241      -0.094       0.033
 C          12.084     -15.195       0.799
 C          20.959      -5.247       0.311
 C          18.850       1.094       0.137
 C          18.666     -14.076       0.948
 C          20.262      -6.491       0.424
 C          18.139      -0.173       0.150
 C          17.891     -15.269       0.838
 C          18.778      -6.453       0.430
 C          16.655      -0.138       0.222
 C          16.460     -15.272       1.003
 C          18.039      -7.702       0.445
 C          15.671     -16.485       0.903
 C          16.559      -7.698       0.508
 C          14.277     -16.471       0.903
 C          20.912      -7.763       0.458
 C          20.186      -8.986       0.455
 C          18.709      -8.978       0.532
 C          20.885     -10.275       0.566
 C          20.196     -11.480       0.809
 C          11.436      -6.366       0.258
 C          21.054       2.331       0.105
 C          20.863     -12.831       0.826
 C          20.321       1.054       0.061
 C          20.147     -14.025       0.850
 C          21.010      -0.185       0.150
 C           9.952      -6.356       0.200
 C          10.018      -3.838       0.038
 C          10.038      -1.310      -0.011
 C           9.333      -2.556      -0.066
 C           9.296      -5.105       0.046
 C           9.271      -7.619       0.211
 C           9.371      -0.033      -0.052
