   142
 frame    714
 H          22.172       4.851      -0.067
 H          20.938       7.032      -0.099
 H          18.753       8.311      -0.074
 H          14.063       9.635      -0.055
 H          16.571       9.603      -0.037
 H           9.637       7.173      -0.196
 H           8.348       5.026      -0.217
 H          11.850       8.399      -0.126
 H           8.142     -10.125       0.251
 H           8.313       2.496      -0.186
 H           8.113     -12.652       0.384
 H           9.346     -14.828       0.525
 H          11.529     -16.106       0.629
 H          16.217     -17.428       0.736
 H          13.711     -17.396       0.717
 H          20.647     -14.970       0.637
 H          22.082      -2.727       0.249
 H          22.049      -5.248       0.355
 H          22.011      -7.770       0.426
 H          21.972     -10.296       0.489
 H          22.143       2.322       0.013
 H          21.936     -12.823       0.564
 H          18.431     -16.193       0.686
 H          22.114      -0.204       0.122
 H           8.238      -2.554      -0.062
 H           8.203      -5.077       0.031
 H           8.170      -7.600       0.134
 H           8.273      -0.032      -0.137
 C          18.877       3.622       0.424
 C          20.363       3.590       0.359
 C          21.088       4.894       0.182
 C          16.678       4.856       0.505
 C          18.133       4.852       0.616
 C          18.898       6.118       0.436
 C          20.391       6.079       0.161
 C          12.366       4.927       0.559
 C          13.827       4.891       0.493
 C          14.544       6.177       0.385
 C          15.995       6.157       0.406
 C          16.763       7.412       0.324
 C          18.233       7.356       0.290
 C          11.637       6.204       0.361
 C          12.339       7.431       0.236
 C          13.812       7.449       0.306
 C          14.596       8.680       0.198
 C          16.013       8.663       0.211
 C           9.422       5.036       0.061
 C          10.152       6.205       0.057
 C          13.652      -7.677       0.494
 C          12.190      -7.666       0.471
 C          11.413      -8.921       0.416
 C           9.959      -8.883       0.370
 C          11.570      -1.309       0.145
 C           9.223     -10.160       0.489
 C          15.790      -8.940       0.587
 C          14.353      -8.924       0.547
 C          15.896      -1.354       0.245
 C          13.607     -10.164       0.586
 C          14.451      -1.337       0.209
 C          12.122     -10.190       0.514
 C          13.703      -2.615       0.179
 C          11.590       3.708       0.321
 C          11.396     -11.404       0.847
 C          12.251      -2.597       0.178
 C          10.107       3.719       0.245
 C           9.913     -11.371       0.749
 C          11.498      -3.855       0.109
 C           9.394       2.506       0.061
 C           9.185     -12.675       0.662
 C          20.263      -1.423       0.215
 C          17.990     -10.270       0.622
 C          18.776      -1.399       0.282
 C          16.508     -10.202       0.637
 C          18.060      -2.670       0.304
 C          15.957       3.623       0.277
 C          15.765     -11.423       0.785
 C          16.611      -2.651       0.250
 C          14.519       3.643       0.251
 C          14.317     -11.408       0.764
 C          13.777       2.413       0.134
 C          13.596     -12.628       1.067
 C          15.884      -3.905       0.255
 C          14.386      -3.893       0.214
 C          12.293       2.468       0.068
 C          12.137     -12.628       1.152
 C          13.666      -5.152       0.265
 C          11.538       1.202       0.047
 C          11.376     -13.889       1.017
 C          12.219      -5.122       0.271
 C          10.082       1.204       0.004
 C           9.873     -13.862       0.716
 C          20.965      -2.700       0.308
 C          18.666     -11.496       0.965
 C          20.266      -3.959       0.429
 C          18.161       2.389       0.148
 C          17.890     -12.702       1.233
 C          18.775      -3.943       0.281
 C          16.681       2.377       0.177
 C          16.435     -12.671       1.099
 C          18.024      -5.192       0.417
 C          15.928       1.141       0.188
 C          15.730     -13.951       1.013
 C          16.581      -5.184       0.340
 C          14.486       1.158       0.155
 C          14.273     -13.928       0.998
 C          15.829      -6.448       0.442
 C          13.756      -0.069       0.192
 C          13.514     -15.184       0.996
 C          14.383      -6.429       0.392
 C          12.289      -0.052       0.193
 C          12.051     -15.132       0.938
 C          20.920      -5.243       0.423
 C          18.879       1.118       0.160
 C          18.630     -13.980       1.102
 C          20.181      -6.508       0.433
 C          18.089      -0.123       0.293
 C          17.931     -15.215       0.994
 C          18.704      -6.488       0.506
 C          16.625      -0.105       0.266
 C          16.462     -15.224       1.015
 C          17.989      -7.732       0.609
 C          15.684     -16.462       0.942
 C          16.522      -7.709       0.568
 C          14.272     -16.440       0.928
 C          20.895      -7.777       0.367
 C          20.184      -9.009       0.565
 C          18.736      -9.009       0.554
 C          20.882     -10.305       0.701
 C          20.161     -11.500       0.928
 C          11.506      -6.403       0.323
 C          21.049       2.362       0.211
 C          20.858     -12.825       0.809
 C          20.328       1.076       0.168
 C          20.133     -13.989       0.828
 C          21.000      -0.182       0.045
 C          10.037      -6.386       0.197
 C          10.012      -3.837       0.199
 C          10.097      -1.299       0.002
 C           9.361      -2.563       0.053
 C           9.327      -5.102       0.154
 C           9.293      -7.635       0.116
 C           9.388      -0.040      -0.184
