   142
 frame    926
 H          22.172       4.851      -0.067
 H          20.938       7.032      -0.099
 H          18.753       8.311      -0.074
 H          14.063       9.635      -0.055
 H          16.571       9.603      -0.037
 H           9.637       7.173      -0.196
 H           8.348       5.026      -0.217
 H          11.850       8.399      -0.126
 H           8.142     -10.125       0.251
 H           8.313       2.496      -0.186
 H           8.113     -12.652       0.384
 H           9.346     -14.828       0.525
 H          11.529     -16.106       0.629
 H          16.217     -17.428       0.736
 H          13.711     -17.396       0.717
 H          20.647     -14.970       0.637
 H          22.082      -2.727       0.249
 H          22.049      -5.248       0.355
 H          22.011      -7.770       0.426
 H          21.972     -10.296       0.489
 H          22.143       2.322       0.013
 H          21.936     -12.823       0.564
 H          18.431     -16.193       0.686
 H          22.114      -0.204       0.122
 H           8.238      -2.554      -0.062
 H           8.203      -5.077       0.031
 H           8.170      -7.600       0.134
 H           8.273      -0.032      -0.137
 C          18.895       3.614       0.171
 C          20.372       3.603       0.116
 C          21.069       4.897      -0.008
 C          16.698       4.861      -0.002
 C          18.151       4.872       0.160
 C          18.872       6.139       0.087
 C          20.360       6.085      -0.025
 C          12.359       4.943       0.084
 C          13.828       4.887      -0.024
 C          14.547       6.145      -0.232
 C          15.998       6.137      -0.212
 C          16.726       7.403      -0.066
 C          18.151       7.379      -0.001
 C          11.677       6.226       0.003
 C          12.431       7.444      -0.061
 C          13.854       7.434      -0.090
 C          14.614       8.685      -0.064
 C          15.999       8.659      -0.046
 C           9.450       5.042      -0.139
 C          10.188       6.210      -0.136
 C          13.651      -7.625       0.808
 C          12.198      -7.628       0.776
 C          11.408      -8.849       0.615
 C           9.936      -8.847       0.516
 C          11.555      -1.291       0.620
 C           9.221     -10.152       0.438
 C          15.802      -8.923       0.736
 C          14.331      -8.898       0.706
 C          15.889      -1.413       0.787
 C          13.564     -10.110       0.589
 C          14.435      -1.392       0.759
 C          12.096     -10.131       0.514
 C          13.703      -2.607       1.068
 C          11.586       3.701       0.055
 C          11.379     -11.390       0.580
 C          12.238      -2.562       0.836
 C          10.118       3.729      -0.027
 C           9.917     -11.386       0.496
 C          11.459      -3.824       0.767
 C           9.389       2.514       0.010
 C           9.220     -12.683       0.477
 C          20.256      -1.426       0.557
 C          18.005     -10.200       0.584
 C          18.768      -1.378       0.768
 C          16.542     -10.141       0.624
 C          18.061      -2.635       0.963
 C          15.976       3.567       0.039
 C          15.774     -11.374       0.536
 C          16.585      -2.655       1.116
 C          14.509       3.590       0.026
 C          14.307     -11.355       0.528
 C          13.731       2.373       0.151
 C          13.580     -12.635       0.549
 C          15.840      -3.869       1.454
 C          14.395      -3.852       1.434
 C          12.269       2.423       0.071
 C          12.126     -12.642       0.675
 C          13.663      -5.082       1.136
 C          11.548       1.177       0.274
 C          11.406     -13.913       0.691
 C          12.196      -5.100       0.933
 C          10.079       1.200       0.149
 C           9.921     -13.877       0.546
 C          20.970      -2.680       0.590
 C          18.691     -11.476       0.679
 C          20.271      -3.937       0.796
 C          18.183       2.349       0.155
 C          17.918     -12.720       0.754
 C          18.807      -3.914       0.935
 C          16.720       2.329       0.175
 C          16.471     -12.674       0.570
 C          18.029      -5.177       1.049
 C          15.944       1.135       0.385
 C          15.736     -13.945       0.413
 C          16.546      -5.116       1.183
 C          14.466       1.154       0.363
 C          14.282     -13.923       0.414
 C          15.823      -6.364       0.949
 C          13.760      -0.106       0.542
 C          13.552     -15.196       0.603
 C          14.360      -6.341       0.914
 C          12.298      -0.059       0.516
 C          12.122     -15.154       0.660
 C          20.936      -5.217       0.679
 C          18.868       1.082       0.398
 C          18.600     -14.004       0.773
 C          20.186      -6.465       0.748
 C          18.071      -0.136       0.620
 C          17.853     -15.229       0.710
 C          18.695      -6.464       0.958
 C          16.613      -0.140       0.589
 C          16.428     -15.233       0.623
 C          17.967      -7.705       0.906
 C          15.669     -16.477       0.678
 C          16.510      -7.658       0.867
 C          14.280     -16.457       0.668
 C          20.913      -7.723       0.633
 C          20.203      -8.967       0.706
 C          18.723      -8.936       0.744
 C          20.888     -10.290       0.647
 C          20.160     -11.510       0.653
 C          11.492      -6.367       0.807
 C          21.054       2.363       0.182
 C          20.826     -12.828       0.626
 C          20.332       1.071       0.328
 C          20.093     -14.004       0.659
 C          21.011      -0.195       0.356
 C          10.019      -6.340       0.529
 C          10.001      -3.816       0.565
 C          10.085      -1.298       0.351
 C           9.328      -2.538       0.333
 C           9.302      -5.075       0.424
 C           9.269      -7.583       0.400
 C           9.376      -0.046       0.111
