   142
 frame    109
 H          22.172       4.851      -0.067
 H          20.938       7.032      -0.099
 H          18.753       8.311      -0.074
 H          14.063       9.635      -0.055
 H          16.571       9.603      -0.037
 H           9.637       7.173      -0.196
 H           8.348       5.026      -0.217
 H          11.850       8.399      -0.126
 H           8.142     -10.125       0.251
 H           8.313       2.496      -0.186
 H           8.113     -12.652       0.384
 H           9.346     -14.828       0.525
 H          11.529     -16.106       0.629
 H          16.217     -17.428       0.736
 H          13.711     -17.396       0.717
 H          20.647     -14.970       0.637
 H          22.082      -2.727       0.249
 H          22.049      -5.248       0.355
 H          22.011      -7.770       0.426
 H          21.972     -10.296       0.489
 H          22.143       2.322       0.013
 H          21.936     -12.823       0.564
 H          18.431     -16.193       0.686
 H          22.114      -0.204       0.122
 H           8.238      -2.554      -0.062
 H           8.203      -5.077       0.031
 H           8.170      -7.600       0.134
 H           8.273      -0.032      -0.137
 C          18.891       3.588       0.113
 C          20.366       3.570      -0.024
 C          21.071       4.875      -0.167
 C          16.709       4.869       0.014
 C          18.177       4.852      -0.059
 C          18.926       6.130      -0.156
 C          20.400       6.085      -0.138
 C          12.340       4.921      -0.118
 C          13.808       4.896      -0.023
 C          14.538       6.167      -0.124
 C          16.005       6.152      -0.109
 C          16.763       7.410      -0.110
 C          18.206       7.357      -0.105
 C          11.618       6.220      -0.225
 C          12.366       7.429      -0.159
 C          13.812       7.447      -0.133
 C          14.605       8.675      -0.073
 C          16.003       8.657      -0.063
 C           9.452       5.018      -0.295
 C          10.148       6.212      -0.249
 C          13.635      -7.678      -0.131
 C          12.162      -7.680      -0.059
 C          11.432      -8.879       0.295
 C           9.959      -8.844       0.390
 C          11.543      -1.336      -0.328
 C           9.247     -10.128       0.420
 C          15.814      -8.966       0.075
 C          14.346      -8.944       0.050
 C          15.917      -1.418      -0.340
 C          13.605     -10.136       0.453
 C          14.444      -1.399      -0.357
 C          12.146     -10.111       0.520
 C          13.714      -2.646      -0.535
 C          11.597       3.670       0.016
 C          11.394     -11.378       0.547
 C          12.223      -2.600      -0.351
 C          10.122       3.699      -0.138
 C           9.917     -11.377       0.381
 C          11.488      -3.872      -0.243
 C           9.412       2.469      -0.024
 C           9.212     -12.679       0.299
 C          20.305      -1.457      -0.017
 C          17.968     -10.190       0.613
 C          18.834      -1.425      -0.199
 C          16.512     -10.173       0.504
 C          18.121      -2.672      -0.239
 C          15.972       3.602       0.149
 C          15.771     -11.424       0.682
 C          16.623      -2.682      -0.454
 C          14.515       3.620       0.130
 C          14.312     -11.404       0.659
 C          13.773       2.363       0.010
 C          13.568     -12.664       0.580
 C          15.895      -3.929      -0.544
 C          14.419      -3.914      -0.572
 C          12.308       2.387       0.071
 C          12.107     -12.652       0.477
 C          13.683      -5.159      -0.424
 C          11.563       1.169      -0.064
 C          11.358     -13.929       0.427
 C          12.189      -5.153      -0.256
 C          10.089       1.169       0.031
 C           9.888     -13.879       0.413
 C          20.973      -2.719       0.027
 C          18.683     -11.476       0.657
 C          20.273      -3.981      -0.069
 C          18.145       2.320       0.172
 C          17.942     -12.728       0.558
 C          18.826      -3.956      -0.095
 C          16.683       2.329       0.047
 C          16.480     -12.704       0.618
 C          18.080      -5.232      -0.146
 C          15.951       1.122      -0.283
 C          15.736     -13.960       0.544
 C          16.594      -5.198      -0.367
 C          14.484       1.138      -0.317
 C          14.275     -13.943       0.528
 C          15.843      -6.424      -0.138
 C          13.725      -0.115      -0.402
 C          13.520     -15.200       0.566
 C          14.384      -6.407      -0.178
 C          12.264      -0.065      -0.333
 C          12.075     -15.151       0.549
 C          20.945      -5.246       0.119
 C          18.863       1.084       0.052
 C          18.654     -14.022       0.512
 C          20.238      -6.489       0.180
 C          18.138      -0.133      -0.240
 C          17.903     -15.225       0.606
 C          18.771      -6.488      -0.005
 C          16.683      -0.147      -0.348
 C          16.460     -15.233       0.595
 C          18.031      -7.751       0.069
 C          15.674     -16.465       0.683
 C          16.565      -7.718      -0.076
 C          14.276     -16.446       0.671
 C          20.916      -7.748       0.509
 C          20.189      -8.978       0.569
 C          18.717      -8.968       0.433
 C          20.870     -10.276       0.619
 C          20.167     -11.506       0.543
 C          11.471      -6.399      -0.156
 C          21.043       2.328       0.137
 C          20.838     -12.820       0.456
 C          20.332       1.048       0.208
 C          20.124     -14.004       0.530
 C          21.023      -0.199       0.217
 C           9.991      -6.365      -0.051
 C          10.033      -3.855      -0.304
 C          10.061      -1.332      -0.236
 C           9.350      -2.574      -0.251
 C           9.310      -5.104      -0.151
 C           9.256      -7.604       0.277
 C           9.362      -0.060      -0.007
