   142
 frame    815
 H          22.172       4.851      -0.067
 H          20.938       7.032      -0.099
 H          18.753       8.311      -0.074
 H          14.063       9.635      -0.055
 H          16.571       9.603      -0.037
 H           9.637       7.173      -0.196
 H           8.348       5.026      -0.217
 H          11.850       8.399      -0.126
 H           8.142     -10.125       0.251
 H           8.313       2.496      -0.186
 H           8.113     -12.652       0.384
 H           9.346     -14.828       0.525
 H          11.529     -16.106       0.629
 H          16.217     -17.428       0.736
 H          13.711     -17.396       0.717
 H          20.647     -14.970       0.637
 H          22.082      -2.727       0.249
 H          22.049      -5.248       0.355
 H          22.011      -7.770       0.426
 H          21.972     -10.296       0.489
 H          22.143       2.322       0.013
 H          21.936     -12.823       0.564
 H          18.431     -16.193       0.686
 H          22.114      -0.204       0.122
 H           8.238      -2.554      -0.062
 H           8.203      -5.077       0.031
 H           8.170      -7.600       0.134
 H           8.273      -0.032      -0.137
 C          18.888       3.597       0.093
 C          20.360       3.560      -0.014
 C          21.079       4.854       0.048
 C          16.713       4.896       0.128
 C          18.155       4.844       0.002
 C          18.916       6.096      -0.002
 C          20.395       6.052       0.025
 C          12.369       4.912      -0.050
 C          13.803       4.926       0.086
 C          14.543       6.231       0.168
 C          15.997       6.203       0.179
 C          16.751       7.452       0.035
 C          18.217       7.335       0.030
 C          11.643       6.192      -0.075
 C          12.364       7.409      -0.021
 C          13.832       7.486       0.006
 C          14.606       8.688      -0.144
 C          16.007       8.669      -0.143
 C           9.440       5.001      -0.093
 C          10.160       6.182      -0.093
 C          13.625      -7.628       1.027
 C          12.175      -7.633       0.720
 C          11.423      -8.865       0.686
 C           9.945      -8.852       0.344
 C          11.509      -1.310       0.323
 C           9.244     -10.126       0.226
 C          15.811      -8.956       1.169
 C          14.309      -8.942       1.154
 C          15.907      -1.422       0.776
 C          13.535     -10.189       0.991
 C          14.421      -1.406       0.759
 C          12.093     -10.160       0.788
 C          13.663      -2.653       0.529
 C          11.592       3.694      -0.002
 C          11.389     -11.402       0.495
 C          12.176      -2.613       0.387
 C          10.130       3.691      -0.159
 C           9.927     -11.372       0.331
 C          11.412      -3.846       0.429
 C           9.411       2.472      -0.212
 C           9.200     -12.647       0.498
 C          20.285      -1.449       0.369
 C          18.008     -10.227       0.895
 C          18.835      -1.401       0.478
 C          16.552     -10.224       1.048
 C          18.132      -2.684       0.515
 C          15.980       3.634       0.317
 C          15.771     -11.429       0.861
 C          16.645      -2.680       0.590
 C          14.490       3.655       0.296
 C          14.295     -11.405       0.836
 C          13.711       2.459       0.529
 C          13.579     -12.688       0.689
 C          15.877      -3.901       0.426
 C          14.405      -3.881       0.382
 C          12.258       2.453       0.355
 C          12.145     -12.649       0.541
 C          13.626      -5.094       0.598
 C          11.548       1.183       0.328
 C          11.362     -13.899       0.595
 C          12.145      -5.103       0.486
 C          10.079       1.177       0.000
 C           9.885     -13.844       0.588
 C          21.007      -2.702       0.403
 C          18.681     -11.489       0.615
 C          20.335      -3.958       0.528
 C          18.171       2.374       0.436
 C          17.910     -12.721       0.609
 C          18.863      -3.938       0.590
 C          16.724       2.429       0.574
 C          16.472     -12.727       0.727
 C          18.099      -5.175       0.618
 C          15.951       1.186       0.796
 C          15.731     -14.010       0.840
 C          16.620      -5.132       0.693
 C          14.450       1.212       0.766
 C          14.277     -13.995       0.834
 C          15.841      -6.368       0.983
 C          13.735      -0.094       0.740
 C          13.528     -15.236       0.720
 C          14.351      -6.344       0.942
 C          12.279      -0.070       0.428
 C          12.068     -15.129       0.704
 C          20.978      -5.238       0.519
 C          18.855       1.091       0.463
 C          18.655     -13.988       0.687
 C          20.226      -6.474       0.571
 C          18.094      -0.138       0.556
 C          17.919     -15.198       0.749
 C          18.767      -6.469       0.685
 C          16.631      -0.128       0.792
 C          16.457     -15.269       0.749
 C          17.992      -7.706       0.848
 C          15.679     -16.481       0.604
 C          16.527      -7.666       1.083
 C          14.277     -16.462       0.591
 C          20.906      -7.741       0.534
 C          20.195      -8.975       0.550
 C          18.723      -8.956       0.832
 C          20.868     -10.269       0.436
 C          20.154     -11.496       0.509
 C          11.441      -6.383       0.515
 C          21.043       2.322      -0.033
 C          20.843     -12.797       0.670
 C          20.344       1.053       0.191
 C          20.131     -13.978       0.717
 C          21.014      -0.203       0.226
 C           9.984      -6.346       0.346
 C           9.940      -3.833       0.288
 C          10.061      -1.319       0.133
 C           9.310      -2.560       0.136
 C           9.269      -5.093       0.248
 C           9.267      -7.600       0.278
 C           9.369      -0.057      -0.004
