   142
 frame    790
 H          22.172       4.851      -0.067
 H          20.938       7.032      -0.099
 H          18.753       8.311      -0.074
 H          14.063       9.635      -0.055
 H          16.571       9.603      -0.037
 H           9.637       7.173      -0.196
 H           8.348       5.026      -0.217
 H          11.850       8.399      -0.126
 H           8.142     -10.125       0.251
 H           8.313       2.496      -0.186
 H           8.113     -12.652       0.384
 H           9.346     -14.828       0.525
 H          11.529     -16.106       0.629
 H          16.217     -17.428       0.736
 H          13.711     -17.396       0.717
 H          20.647     -14.970       0.637
 H          22.082      -2.727       0.249
 H          22.049      -5.248       0.355
 H          22.011      -7.770       0.426
 H          21.972     -10.296       0.489
 H          22.143       2.322       0.013
 H          21.936     -12.823       0.564
 H          18.431     -16.193       0.686
 H          22.114      -0.204       0.122
 H           8.238      -2.554      -0.062
 H           8.203      -5.077       0.031
 H           8.170      -7.600       0.134
 H           8.273      -0.032      -0.137
 C          18.880       3.628       0.261
 C          20.374       3.609       0.145
 C          21.079       4.901      -0.125
 C          16.747       4.872       0.379
 C          18.185       4.909       0.216
 C          18.904       6.172      -0.068
 C          20.388       6.097      -0.184
 C          12.331       4.978       0.140
 C          13.764       4.909       0.360
 C          14.557       6.139       0.190
 C          15.992       6.114       0.202
 C          16.707       7.380       0.059
 C          18.158       7.366      -0.098
 C          11.641       6.274      -0.143
 C          12.418       7.438      -0.149
 C          13.871       7.415       0.033
 C          14.598       8.648       0.073
 C          16.008       8.630       0.095
 C           9.443       5.048      -0.257
 C          10.158       6.230      -0.282
 C          13.595      -7.628       0.820
 C          12.134      -7.625       0.711
 C          11.444      -8.875       0.541
 C           9.948      -8.895       0.382
 C          11.511      -1.317       0.329
 C           9.243     -10.165       0.428
 C          15.804      -8.895       0.916
 C          14.336      -8.883       0.880
 C          15.895      -1.347       0.569
 C          13.621     -10.154       0.865
 C          14.440      -1.321       0.527
 C          12.167     -10.138       0.707
 C          13.745      -2.603       0.432
 C          11.599       3.716       0.162
 C          11.401     -11.398       0.684
 C          12.288      -2.580       0.431
 C          10.113       3.735       0.010
 C           9.924     -11.403       0.535
 C          11.596      -3.846       0.340
 C           9.411       2.516       0.009
 C           9.217     -12.706       0.340
 C          20.278      -1.446       0.291
 C          17.950     -10.211       0.812
 C          18.832      -1.413       0.487
 C          16.486     -10.186       0.917
 C          18.023      -2.649       0.557
 C          15.979       3.635       0.574
 C          15.769     -11.427       1.113
 C          16.568      -2.634       0.506
 C          14.496       3.655       0.569
 C          14.293     -11.406       1.091
 C          13.787       2.412       0.422
 C          13.523     -12.654       0.949
 C          15.851      -3.896       0.532
 C          14.415      -3.874       0.504
 C          12.328       2.430       0.269
 C          12.098     -12.680       0.737
 C          13.704      -5.135       0.550
 C          11.572       1.188       0.190
 C          11.384     -13.965       0.515
 C          12.258      -5.127       0.521
 C          10.093       1.220       0.023
 C           9.905     -13.907       0.371
 C          20.943      -2.725       0.272
 C          18.677     -11.492       0.815
 C          20.190      -3.962       0.390
 C          18.118       2.359       0.363
 C          17.948     -12.757       0.830
 C          18.681      -3.938       0.512
 C          16.658       2.377       0.458
 C          16.519     -12.692       0.984
 C          17.978      -5.198       0.668
 C          15.934       1.119       0.515
 C          15.727     -13.915       0.864
 C          16.539      -5.176       0.609
 C          14.466       1.142       0.498
 C          14.283     -13.899       0.837
 C          15.823      -6.439       0.768
 C          13.687      -0.086       0.526
 C          13.580     -15.168       0.744
 C          14.376      -6.418       0.742
 C          12.227      -0.077       0.443
 C          12.135     -15.164       0.561
 C          20.915      -5.226       0.379
 C          18.839       1.089       0.316
 C          18.631     -14.057       0.594
 C          20.208      -6.481       0.508
 C          18.140      -0.149       0.538
 C          17.851     -15.230       0.625
 C          18.752      -6.459       0.702
 C          16.675      -0.121       0.585
 C          16.404     -15.208       0.766
 C          18.029      -7.700       0.832
 C          15.672     -16.448       0.848
 C          16.566      -7.668       0.894
 C          14.269     -16.425       0.837
 C          20.886      -7.768       0.450
 C          20.190      -9.020       0.592
 C          18.706      -8.972       0.683
 C          20.871     -10.308       0.648
 C          20.164     -11.529       0.702
 C          11.451      -6.368       0.537
 C          21.047       2.363       0.182
 C          20.834     -12.846       0.492
 C          20.331       1.092       0.206
 C          20.116     -14.032       0.483
 C          20.995      -0.180       0.167
 C          10.004      -6.354       0.263
 C          10.090      -3.839       0.155
 C          10.071      -1.316       0.069
 C           9.377      -2.580       0.007
 C           9.343      -5.083       0.106
 C           9.289      -7.625       0.203
 C           9.395      -0.030      -0.089
