   142
 frame    197
 H          22.172       4.851      -0.067
 H          20.938       7.032      -0.099
 H          18.753       8.311      -0.074
 H          14.063       9.635      -0.055
 H          16.571       9.603      -0.037
 H           9.637       7.173      -0.196
 H           8.348       5.026      -0.217
 H          11.850       8.399      -0.126
 H           8.142     -10.125       0.251
 H           8.313       2.496      -0.186
 H           8.113     -12.652       0.384
 H           9.346     -14.828       0.525
 H          11.529     -16.106       0.629
 H          16.217     -17.428       0.736
 H          13.711     -17.396       0.717
 H          20.647     -14.970       0.637
 H          22.082      -2.727       0.249
 H          22.049      -5.248       0.355
 H          22.011      -7.770       0.426
 H          21.972     -10.296       0.489
 H          22.143       2.322       0.013
 H          21.936     -12.823       0.564
 H          18.431     -16.193       0.686
 H          22.114      -0.204       0.122
 H           8.238      -2.554      -0.062
 H           8.203      -5.077       0.031
 H           8.170      -7.600       0.134
 H           8.273      -0.032      -0.137
 C          18.894       3.571      -0.080
 C          20.371       3.570      -0.098
 C          21.054       4.871      -0.095
 C          16.724       4.845       0.005
 C          18.181       4.824       0.139
 C          18.902       6.125       0.130
 C          20.367       6.073      -0.072
 C          12.330       4.893       0.079
 C          13.793       4.876      -0.022
 C          14.536       6.150      -0.026
 C          16.011       6.129      -0.033
 C          16.747       7.395       0.136
 C          18.197       7.371       0.165
 C          11.646       6.212       0.050
 C          12.376       7.441       0.108
 C          13.828       7.434       0.122
 C          14.607       8.672       0.136
 C          16.004       8.660       0.154
 C           9.464       5.013      -0.222
 C          10.175       6.200      -0.167
 C          13.648      -7.667      -0.237
 C          12.189      -7.684      -0.372
 C          11.437      -8.931      -0.232
 C           9.968      -8.881      -0.080
 C          11.545      -1.330      -0.548
 C           9.241     -10.135       0.169
 C          15.808      -8.923       0.061
 C          14.355      -8.904       0.027
 C          15.925      -1.403      -0.492
 C          13.597     -10.162       0.059
 C          14.441      -1.390      -0.531
 C          12.135     -10.169      -0.024
 C          13.702      -2.629      -0.591
 C          11.593       3.655      -0.179
 C          11.406     -11.381       0.333
 C          12.238      -2.630      -0.559
 C          10.120       3.691      -0.223
 C           9.930     -11.375       0.280
 C          11.514      -3.876      -0.459
 C           9.405       2.473      -0.268
 C           9.229     -12.679       0.358
 C          20.324      -1.458      -0.258
 C          17.991     -10.247       0.074
 C          18.831      -1.420      -0.411
 C          16.527     -10.199       0.116
 C          18.106      -2.702      -0.430
 C          15.980       3.610      -0.193
 C          15.775     -11.433       0.304
 C          16.637      -2.663      -0.527
 C          14.511       3.624      -0.218
 C          14.313     -11.413       0.293
 C          13.760       2.384      -0.357
 C          13.564     -12.645       0.559
 C          15.882      -3.927      -0.553
 C          14.426      -3.910      -0.586
 C          12.305       2.421      -0.445
 C          12.114     -12.621       0.651
 C          13.668      -5.170      -0.508
 C          11.567       1.183      -0.566
 C          11.390     -13.913       0.690
 C          12.203      -5.144      -0.475
 C          10.094       1.190      -0.423
 C           9.912     -13.872       0.482
 C          20.986      -2.732       0.026
 C          18.679     -11.474       0.449
 C          20.310      -3.987      -0.154
 C          18.159       2.348      -0.356
 C          17.928     -12.699       0.730
 C          18.786      -3.969      -0.305
 C          16.703       2.353      -0.311
 C          16.483     -12.683       0.586
 C          18.073      -5.217      -0.337
 C          15.947       1.080      -0.277
 C          15.743     -13.956       0.618
 C          16.603      -5.213      -0.443
 C          14.487       1.099      -0.318
 C          14.267     -13.937       0.600
 C          15.856      -6.448      -0.315
 C          13.749      -0.127      -0.495
 C          13.530     -15.197       0.818
 C          14.369      -6.431      -0.361
 C          12.290      -0.081      -0.632
 C          12.083     -15.158       0.815
 C          20.956      -5.235       0.128
 C          18.873       1.088      -0.465
 C          18.621     -14.011       0.766
 C          20.256      -6.499      -0.061
 C          18.121      -0.158      -0.520
 C          17.894     -15.236       0.868
 C          18.766      -6.506      -0.223
 C          16.653      -0.164      -0.432
 C          16.451     -15.231       0.852
 C          18.015      -7.756      -0.249
 C          15.674     -16.470       0.903
 C          16.553      -7.704      -0.177
 C          14.277     -16.449       0.894
 C          20.926      -7.749       0.188
 C          20.194      -9.002       0.113
 C          18.729      -9.013      -0.086
 C          20.874     -10.279       0.363
 C          20.154     -11.502       0.441
 C          11.469      -6.423      -0.371
 C          21.056       2.330      -0.105
 C          20.818     -12.825       0.525
 C          20.333       1.060      -0.254
 C          20.100     -14.007       0.609
 C          21.026      -0.212      -0.102
 C           9.975      -6.372      -0.283
 C           9.992      -3.856      -0.388
 C          10.048      -1.329      -0.467
 C           9.338      -2.591      -0.226
 C           9.298      -5.100      -0.141
 C           9.264      -7.607      -0.056
 C           9.362      -0.060      -0.319
