   142
 frame    562
 H          22.172       4.851      -0.067
 H          20.938       7.032      -0.099
 H          18.753       8.311      -0.074
 H          14.063       9.635      -0.055
 H          16.571       9.603      -0.037
 H           9.637       7.173      -0.196
 H           8.348       5.026      -0.217
 H          11.850       8.399      -0.126
 H           8.142     -10.125       0.251
 H           8.313       2.496      -0.186
 H           8.113     -12.652       0.384
 H           9.346     -14.828       0.525
 H          11.529     -16.106       0.629
 H          16.217     -17.428       0.736
 H          13.711     -17.396       0.717
 H          20.647     -14.970       0.637
 H          22.082      -2.727       0.249
 H          22.049      -5.248       0.355
 H          22.011      -7.770       0.426
 H          21.972     -10.296       0.489
 H          22.143       2.322       0.013
 H          21.936     -12.823       0.564
 H          18.431     -16.193       0.686
 H          22.114      -0.204       0.122
 H           8.238      -2.554      -0.062
 H           8.203      -5.077       0.031
 H           8.170      -7.600       0.134
 H           8.273      -0.032      -0.137
 C          18.873       3.625      -0.057
 C          20.347       3.593       0.024
 C          21.067       4.862      -0.002
 C          16.714       4.915      -0.253
 C          18.166       4.904      -0.036
 C          18.950       6.159       0.130
 C          20.423       6.085       0.063
 C          12.344       4.985      -0.101
 C          13.813       4.951      -0.281
 C          14.533       6.222      -0.386
 C          16.027       6.208      -0.381
 C          16.790       7.426      -0.127
 C          18.217       7.372       0.066
 C          11.597       6.251       0.054
 C          12.363       7.446      -0.003
 C          13.788       7.457      -0.159
 C          14.602       8.665      -0.107
 C          16.005       8.649      -0.092
 C           9.448       5.011      -0.115
 C          10.126       6.208      -0.031
 C          13.635      -7.641       0.299
 C          12.161      -7.625       0.244
 C          11.411      -8.881       0.236
 C           9.943      -8.882       0.202
 C          11.514      -1.325      -0.221
 C           9.258     -10.156       0.337
 C          15.801      -8.929       0.504
 C          14.348      -8.915       0.469
 C          15.923      -1.390      -0.131
 C          13.583     -10.182       0.375
 C          14.449      -1.366      -0.177
 C          12.113     -10.154       0.227
 C          13.709      -2.658      -0.222
 C          11.613       3.720      -0.156
 C          11.405     -11.425       0.339
 C          12.239      -2.594      -0.340
 C          10.141       3.722      -0.121
 C           9.939     -11.403       0.374
 C          11.492      -3.864      -0.240
 C           9.426       2.498      -0.096
 C           9.207     -12.667       0.462
 C          20.332      -1.448      -0.095
 C          18.008     -10.226       0.319
 C          18.852      -1.421      -0.093
 C          16.541     -10.211       0.409
 C          18.098      -2.669      -0.229
 C          15.976       3.608      -0.180
 C          15.775     -11.432       0.323
 C          16.634      -2.686      -0.162
 C          14.512       3.634      -0.196
 C          14.316     -11.419       0.309
 C          13.748       2.417      -0.038
 C          13.579     -12.720       0.304
 C          15.885      -3.919       0.053
 C          14.414      -3.898       0.016
 C          12.294       2.425      -0.178
 C          12.115     -12.705       0.479
 C          13.670      -5.127      -0.146
 C          11.548       1.177      -0.075
 C          11.324     -13.944       0.705
 C          12.205      -5.155      -0.249
 C          10.082       1.206      -0.147
 C           9.851     -13.873       0.628
 C          20.979      -2.710       0.177
 C          18.674     -11.517       0.449
 C          20.266      -3.973       0.168
 C          18.167       2.352      -0.093
 C          17.931     -12.779       0.550
 C          18.805      -3.955      -0.104
 C          16.708       2.380       0.001
 C          16.475     -12.763       0.337
 C          18.058      -5.220      -0.124
 C          15.935       1.123       0.167
 C          15.761     -14.036       0.267
 C          16.596      -5.163      -0.089
 C          14.480       1.146       0.145
 C          14.264     -14.009       0.260
 C          15.853      -6.443       0.023
 C          13.739      -0.118       0.047
 C          13.496     -15.213       0.545
 C          14.376      -6.424      -0.002
 C          12.258      -0.095      -0.006
 C          12.067     -15.160       0.708
 C          20.947      -5.239       0.256
 C          18.875       1.081       0.020
 C          18.684     -14.037       0.789
 C          20.266      -6.500       0.099
 C          18.121      -0.172       0.076
 C          17.920     -15.234       0.762
 C          18.787      -6.485       0.097
 C          16.643      -0.148       0.086
 C          16.484     -15.257       0.577
 C          18.025      -7.702       0.342
 C          15.677     -16.463       0.647
 C          16.549      -7.679       0.347
 C          14.277     -16.443       0.639
 C          20.914      -7.773       0.292
 C          20.204      -9.007       0.385
 C          18.744      -8.976       0.356
 C          20.850     -10.293       0.542
 C          20.140     -11.521       0.539
 C          11.446      -6.394      -0.032
 C          21.028       2.346       0.085
 C          20.841     -12.812       0.617
 C          20.336       1.080       0.029
 C          20.172     -14.004       0.741
 C          21.008      -0.179       0.016
 C           9.964      -6.369      -0.125
 C          10.021      -3.837      -0.042
 C          10.034      -1.315      -0.295
 C           9.340      -2.568      -0.084
 C           9.307      -5.092       0.009
 C           9.277      -7.627       0.058
 C           9.379      -0.033      -0.192
