   142
 frame    462
 H          22.172       4.851      -0.067
 H          20.938       7.032      -0.099
 H          18.753       8.311      -0.074
 H          14.063       9.635      -0.055
 H          16.571       9.603      -0.037
 H           9.637       7.173      -0.196
 H           8.348       5.026      -0.217
 H          11.850       8.399      -0.126
 H           8.142     -10.125       0.251
 H           8.313       2.496      -0.186
 H           8.113     -12.652       0.384
 H           9.346     -14.828       0.525
 H          11.529     -16.106       0.629
 H          16.217     -17.428       0.736
 H          13.711     -17.396       0.717
 H          20.647     -14.970       0.637
 H          22.082      -2.727       0.249
 H          22.049      -5.248       0.355
 H          22.011      -7.770       0.426
 H          21.972     -10.296       0.489
 H          22.143       2.322       0.013
 H          21.936     -12.823       0.564
 H          18.431     -16.193       0.686
 H          22.114      -0.204       0.122
 H           8.238      -2.554      -0.062
 H           8.203      -5.077       0.031
 H           8.170      -7.600       0.134
 H           8.273      -0.032      -0.137
 C          18.896       3.622      -0.502
 C          20.400       3.579      -0.448
 C          21.101       4.884      -0.261
 C          16.716       4.890      -0.552
 C          18.178       4.888      -0.439
 C          18.921       6.127      -0.165
 C          20.393       6.064      -0.098
 C          12.352       4.975      -0.503
 C          13.814       4.931      -0.593
 C          14.544       6.171      -0.352
 C          16.006       6.143      -0.327
 C          16.768       7.357      -0.087
 C          18.194       7.352      -0.045
 C          11.630       6.221      -0.231
 C          12.389       7.431      -0.089
 C          13.813       7.400      -0.112
 C          14.608       8.628      -0.076
 C          16.005       8.609      -0.053
 C           9.426       5.034      -0.389
 C          10.156       6.196      -0.189
 C          13.643      -7.655      -0.233
 C          12.178      -7.656      -0.238
 C          11.442      -8.902      -0.214
 C           9.969      -8.895      -0.002
 C          11.570      -1.332      -0.186
 C           9.224     -10.153       0.025
 C          15.821      -8.949      -0.164
 C          14.356      -8.936      -0.188
 C          15.904      -1.405      -0.187
 C          13.600     -10.198      -0.169
 C          14.447      -1.385      -0.209
 C          12.127     -10.182      -0.114
 C          13.730      -2.637      -0.145
 C          11.609       3.721      -0.603
 C          11.405     -11.456      -0.093
 C          12.270      -2.613       0.035
 C          10.097       3.714      -0.565
 C           9.898     -11.413      -0.068
 C          11.536      -3.857       0.169
 C           9.392       2.475      -0.408
 C           9.202     -12.701       0.215
 C          20.242      -1.427       0.183
 C          18.003     -10.251      -0.026
 C          18.785      -1.424      -0.037
 C          16.531     -10.240      -0.136
 C          18.034      -2.684       0.149
 C          15.986       3.618      -0.603
 C          15.786     -11.472      -0.160
 C          16.588      -2.673      -0.083
 C          14.514       3.637      -0.637
 C          14.318     -11.461      -0.177
 C          13.761       2.406      -0.563
 C          13.581     -12.737      -0.062
 C          15.852      -3.910      -0.144
 C          14.439      -3.893      -0.174
 C          12.295       2.428      -0.520
 C          12.128     -12.724       0.049
 C          13.701      -5.131      -0.080
 C          11.569       1.166      -0.543
 C          11.372     -13.938       0.408
 C          12.239      -5.122       0.098
 C          10.091       1.197      -0.354
 C           9.898     -13.873       0.477
 C          20.941      -2.704       0.341
 C          18.691     -11.542       0.000
 C          20.223      -3.957       0.433
 C          18.169       2.356      -0.435
 C          17.938     -12.795       0.124
 C          18.730      -3.948       0.336
 C          16.697       2.367      -0.514
 C          16.483     -12.771      -0.021
 C          17.997      -5.194       0.228
 C          15.946       1.097      -0.476
 C          15.741     -13.986       0.285
 C          16.544      -5.161      -0.010
 C          14.485       1.119      -0.489
 C          14.277     -13.972       0.264
 C          15.840      -6.429      -0.029
 C          13.737      -0.137      -0.466
 C          13.518     -15.165       0.560
 C          14.386      -6.412      -0.053
 C          12.280      -0.095      -0.483
 C          12.091     -15.155       0.615
 C          20.904      -5.236       0.441
 C          18.865       1.075      -0.399
 C          18.652     -14.030       0.474
 C          20.169      -6.507       0.363
 C          18.115      -0.173      -0.367
 C          17.899     -15.221       0.661
 C          18.722      -6.483       0.120
 C          16.657      -0.175      -0.412
 C          16.475     -15.193       0.586
 C          18.018      -7.724      -0.133
 C          15.676     -16.426       0.662
 C          16.559      -7.691      -0.174
 C          14.277     -16.411       0.651
 C          20.883      -7.773       0.418
 C          20.189      -9.016       0.180
 C          18.720      -8.989      -0.062
 C          20.901     -10.295       0.220
 C          20.190     -11.538       0.085
 C          11.500      -6.391      -0.027
 C          21.074       2.337      -0.243
 C          20.850     -12.846       0.371
 C          20.331       1.069      -0.167
 C          20.118     -14.000       0.590
 C          20.988      -0.181       0.149
 C          10.038      -6.382       0.163
 C          10.047      -3.835       0.217
 C          10.105      -1.299      -0.003
 C           9.373      -2.559       0.105
 C           9.338      -5.090       0.183
 C           9.295      -7.625       0.190
 C           9.390      -0.039      -0.060
