   142
 frame    957
 H          22.172       4.851      -0.067
 H          20.938       7.032      -0.099
 H          18.753       8.311      -0.074
 H          14.063       9.635      -0.055
 H          16.571       9.603      -0.037
 H           9.637       7.173      -0.196
 H           8.348       5.026      -0.217
 H          11.850       8.399      -0.126
 H           8.142     -10.125       0.251
 H           8.313       2.496      -0.186
 H           8.113     -12.652       0.384
 H           9.346     -14.828       0.525
 H          11.529     -16.106       0.629
 H          16.217     -17.428       0.736
 H          13.711     -17.396       0.717
 H          20.647     -14.970       0.637
 H          22.082      -2.727       0.249
 H          22.049      -5.248       0.355
 H          22.011      -7.770       0.426
 H          21.972     -10.296       0.489
 H          22.143       2.322       0.013
 H          21.936     -12.823       0.564
 H          18.431     -16.193       0.686
 H          22.114      -0.204       0.122
 H           8.238      -2.554      -0.062
 H           8.203      -5.077       0.031
 H           8.170      -7.600       0.134
 H           8.273      -0.032      -0.137
 C          18.878       3.535       0.059
 C          20.337       3.532       0.023
 C          21.071       4.821       0.022
 C          16.723       4.884      -0.074
 C          18.196       4.833       0.007
 C          18.947       6.102       0.132
 C          20.410       6.039       0.084
 C          12.322       4.905      -0.069
 C          13.785       4.924      -0.108
 C          14.529       6.150      -0.011
 C          16.014       6.131       0.007
 C          16.800       7.365       0.025
 C          18.247       7.348       0.071
 C          11.597       6.194       0.070
 C          12.328       7.425       0.014
 C          13.781       7.404       0.002
 C          14.601       8.640       0.002
 C          16.003       8.628       0.010
 C           9.455       4.965      -0.110
 C          10.135       6.170      -0.026
 C          13.584      -7.593       0.903
 C          12.107      -7.578       0.691
 C          11.435      -8.830       0.431
 C           9.950      -8.831       0.250
 C          11.411      -1.335       0.608
 C           9.265     -10.091       0.214
 C          15.812      -8.866       0.754
 C          14.324      -8.854       0.737
 C          15.905      -1.355       1.036
 C          13.604     -10.114       0.534
 C          14.414      -1.340       1.008
 C          12.141     -10.072       0.530
 C          13.655      -2.590       0.918
 C          11.613       3.627      -0.027
 C          11.412     -11.341       0.480
 C          12.122      -2.577       0.921
 C          10.153       3.654      -0.126
 C           9.949     -11.328       0.393
 C          11.387      -3.824       0.910
 C           9.434       2.434      -0.227
 C           9.223     -12.619       0.468
 C          20.389      -1.425       0.607
 C          17.967     -10.142       0.634
 C          18.924      -1.425       0.761
 C          16.503     -10.153       0.579
 C          18.163      -2.643       1.038
 C          15.967       3.612       0.006
 C          15.768     -11.417       0.511
 C          16.632      -2.621       0.993
 C          14.514       3.630      -0.017
 C          14.315     -11.401       0.488
 C          13.770       2.375       0.127
 C          13.555     -12.680       0.488
 C          15.866      -3.877       0.842
 C          14.394      -3.856       0.797
 C          12.310       2.361       0.121
 C          12.089     -12.635       0.542
 C          13.625      -5.095       1.027
 C          11.568       1.141       0.081
 C          11.333     -13.893       0.709
 C          12.091      -5.081       1.002
 C          10.085       1.164      -0.078
 C           9.877     -13.830       0.634
 C          21.029      -2.712       0.523
 C          18.668     -11.435       0.581
 C          20.307      -3.948       0.745
 C          18.138       2.292       0.202
 C          17.956     -12.709       0.587
 C          18.855      -3.912       1.059
 C          16.668       2.339       0.171
 C          16.488     -12.714       0.498
 C          18.119      -5.152       1.137
 C          15.943       1.091       0.414
 C          15.752     -13.939       0.635
 C          16.594      -5.129       1.094
 C          14.457       1.110       0.388
 C          14.266     -13.925       0.605
 C          15.842      -6.383       1.213
 C          13.682      -0.117       0.649
 C          13.484     -15.167       0.684
 C          14.340      -6.365       1.182
 C          12.207      -0.112       0.438
 C          12.029     -15.139       0.719
 C          20.988      -5.229       0.634
 C          18.846       1.050       0.207
 C          18.689     -13.985       0.781
 C          20.320      -6.475       0.803
 C          18.171      -0.187       0.534
 C          17.956     -15.212       0.768
 C          18.848      -6.428       0.937
 C          16.686      -0.155       0.698
 C          16.498     -15.205       0.701
 C          18.057      -7.650       0.799
 C          15.680     -16.432       0.738
 C          16.581      -7.640       0.953
 C          14.277     -16.416       0.727
 C          20.936      -7.753       0.578
 C          20.194      -8.957       0.441
 C          18.705      -8.917       0.561
 C          20.853     -10.243       0.405
 C          20.135     -11.462       0.547
 C          11.333      -6.330       0.794
 C          21.023       2.288      -0.041
 C          20.827     -12.768       0.632
 C          20.333       1.035       0.093
 C          20.143     -13.966       0.760
 C          21.036      -0.188       0.292
 C           9.876      -6.339       0.575
 C           9.946      -3.819       0.506
 C           9.948      -1.305       0.385
 C           9.288      -2.562       0.251
 C           9.243      -5.082       0.355
 C           9.242      -7.603       0.335
 C           9.345      -0.044       0.083
