   142
 frame    905
 H          22.172       4.851      -0.067
 H          20.938       7.032      -0.099
 H          18.753       8.311      -0.074
 H          14.063       9.635      -0.055
 H          16.571       9.603      -0.037
 H           9.637       7.173      -0.196
 H           8.348       5.026      -0.217
 H          11.850       8.399      -0.126
 H           8.142     -10.125       0.251
 H           8.313       2.496      -0.186
 H           8.113     -12.652       0.384
 H           9.346     -14.828       0.525
 H          11.529     -16.106       0.629
 H          16.217     -17.428       0.736
 H          13.711     -17.396       0.717
 H          20.647     -14.970       0.637
 H          22.082      -2.727       0.249
 H          22.049      -5.248       0.355
 H          22.011      -7.770       0.426
 H          21.972     -10.296       0.489
 H          22.143       2.322       0.013
 H          21.936     -12.823       0.564
 H          18.431     -16.193       0.686
 H          22.114      -0.204       0.122
 H           8.238      -2.554      -0.062
 H           8.203      -5.077       0.031
 H           8.170      -7.600       0.134
 H           8.273      -0.032      -0.137
 C          18.868       3.616       0.208
 C          20.335       3.610       0.204
 C          21.061       4.884       0.005
 C          16.706       4.917       0.025
 C          18.165       4.881      -0.004
 C          18.915       6.125      -0.074
 C          20.380       6.082      -0.031
 C          12.354       4.960      -0.080
 C          13.820       4.960      -0.027
 C          14.543       6.190       0.014
 C          16.003       6.167       0.027
 C          16.762       7.399      -0.215
 C          18.196       7.370      -0.202
 C          11.645       6.226      -0.157
 C          12.388       7.449      -0.256
 C          13.818       7.435      -0.249
 C          14.614       8.702      -0.209
 C          16.000       8.678      -0.207
 C           9.455       5.037      -0.134
 C          10.172       6.210      -0.144
 C          13.632      -7.607       0.756
 C          12.152      -7.601       0.779
 C          11.421      -8.887       0.786
 C           9.946      -8.867       0.609
 C          11.512      -1.350       0.526
 C           9.231     -10.145       0.533
 C          15.800      -8.893       0.663
 C          14.329      -8.872       0.650
 C          15.887      -1.375       0.800
 C          13.623     -10.147       0.609
 C          14.433      -1.357       0.785
 C          12.156     -10.159       0.758
 C          13.664      -2.560       1.089
 C          11.612       3.713       0.117
 C          11.407     -11.408       0.639
 C          12.214      -2.591       0.824
 C          10.150       3.746       0.066
 C           9.939     -11.395       0.601
 C          11.474      -3.829       0.836
 C           9.411       2.513       0.078
 C           9.218     -12.677       0.483
 C          20.302      -1.428       0.499
 C          17.949     -10.233       0.849
 C          18.815      -1.437       0.682
 C          16.487     -10.177       0.647
 C          18.073      -2.659       0.940
 C          15.954       3.650       0.070
 C          15.755     -11.461       0.588
 C          16.614      -2.601       1.142
 C          14.522       3.678       0.049
 C          14.319     -11.442       0.563
 C          13.803       2.401       0.170
 C          13.577     -12.707       0.557
 C          15.870      -3.870       1.410
 C          14.371      -3.849       1.385
 C          12.331       2.462       0.311
 C          12.125     -12.681       0.512
 C          13.638      -5.129       1.181
 C          11.560       1.222       0.398
 C          11.373     -13.926       0.505
 C          12.191      -5.082       0.894
 C          10.088       1.222       0.251
 C           9.905     -13.875       0.550
 C          20.974      -2.709       0.456
 C          18.669     -11.499       0.742
 C          20.237      -3.954       0.692
 C          18.106       2.393       0.397
 C          17.922     -12.752       0.579
 C          18.771      -3.922       0.997
 C          16.643       2.366       0.219
 C          16.465     -12.743       0.602
 C          18.032      -5.160       1.024
 C          15.939       1.095       0.305
 C          15.737     -13.971       0.679
 C          16.575      -5.168       1.246
 C          14.473       1.113       0.283
 C          14.282     -13.952       0.650
 C          15.823      -6.387       0.971
 C          13.734      -0.121       0.510
 C          13.521     -15.204       0.463
 C          14.369      -6.367       0.948
 C          12.254      -0.086       0.508
 C          12.085     -15.169       0.472
 C          20.942      -5.224       0.557
 C          18.845       1.132       0.531
 C          18.643     -14.011       0.586
 C          20.225      -6.471       0.684
 C          18.110      -0.164       0.625
 C          17.899     -15.237       0.518
 C          18.748      -6.404       0.850
 C          16.638      -0.154       0.559
 C          16.463     -15.235       0.489
 C          18.017      -7.669       0.888
 C          15.674     -16.491       0.541
 C          16.534      -7.640       0.813
 C          14.281     -16.474       0.531
 C          20.898      -7.762       0.631
 C          20.184      -9.002       0.803
 C          18.705      -8.970       0.913
 C          20.875     -10.299       0.725
 C          20.134     -11.527       0.747
 C          11.441      -6.316       0.688
 C          21.041       2.365       0.255
 C          20.820     -12.816       0.628
 C          20.324       1.104       0.433
 C          20.113     -14.002       0.662
 C          21.006      -0.168       0.318
 C           9.971      -6.347       0.466
 C          10.028      -3.831       0.463
 C          10.048      -1.295       0.277
 C           9.336      -2.559       0.203
 C           9.296      -5.079       0.290
 C           9.275      -7.617       0.384
 C           9.374      -0.023       0.111
