   142
 frame    103
 H          22.172       4.851      -0.067
 H          20.938       7.032      -0.099
 H          18.753       8.311      -0.074
 H          14.063       9.635      -0.055
 H          16.571       9.603      -0.037
 H           9.637       7.173      -0.196
 H           8.348       5.026      -0.217
 H          11.850       8.399      -0.126
 H           8.142     -10.125       0.251
 H           8.313       2.496      -0.186
 H           8.113     -12.652       0.384
 H           9.346     -14.828       0.525
 H          11.529     -16.106       0.629
 H          16.217     -17.428       0.736
 H          13.711     -17.396       0.717
 H          20.647     -14.970       0.637
 H          22.082      -2.727       0.249
 H          22.049      -5.248       0.355
 H          22.011      -7.770       0.426
 H          21.972     -10.296       0.489
 H          22.143       2.322       0.013
 H          21.936     -12.823       0.564
 H          18.431     -16.193       0.686
 H          22.114      -0.204       0.122
 H           8.238      -2.554      -0.062
 H           8.203      -5.077       0.031
 H           8.170      -7.600       0.134
 H           8.273      -0.032      -0.137
 C          18.885       3.585       0.064
 C          20.359       3.560      -0.080
 C          21.073       4.867      -0.145
 C          16.705       4.872      -0.026
 C          18.154       4.836      -0.107
 C          18.906       6.111      -0.136
 C          20.392       6.069      -0.090
 C          12.359       4.909      -0.163
 C          13.809       4.902      -0.062
 C          14.544       6.159      -0.135
 C          16.001       6.140      -0.123
 C          16.751       7.389      -0.097
 C          18.195       7.348      -0.075
 C          11.638       6.202      -0.207
 C          12.380       7.421      -0.130
 C          13.824       7.429      -0.120
 C          14.608       8.663      -0.065
 C          16.005       8.644      -0.053
 C           9.447       5.008      -0.278
 C          10.152       6.194      -0.201
 C          13.634      -7.675      -0.131
 C          12.157      -7.671      -0.036
 C          11.426      -8.870       0.338
 C           9.945      -8.847       0.409
 C          11.527      -1.333      -0.322
 C           9.228     -10.128       0.377
 C          15.808      -8.955       0.125
 C          14.353      -8.940       0.098
 C          15.946      -1.428      -0.347
 C          13.617     -10.136       0.505
 C          14.418      -1.411      -0.364
 C          12.131     -10.110       0.573
 C          13.695      -2.641      -0.531
 C          11.600       3.670      -0.027
 C          11.390     -11.383       0.501
 C          12.227      -2.618      -0.326
 C          10.129       3.685      -0.197
 C           9.926     -11.366       0.319
 C          11.481      -3.872      -0.284
 C           9.402       2.472      -0.065
 C           9.215     -12.662       0.315
 C          20.293      -1.443       0.065
 C          17.980     -10.192       0.665
 C          18.847      -1.421      -0.185
 C          16.500     -10.173       0.555
 C          18.116      -2.688      -0.218
 C          15.967       3.626       0.143
 C          15.765     -11.431       0.677
 C          16.648      -2.676      -0.450
 C          14.518       3.639       0.119
 C          14.312     -11.414       0.656
 C          13.788       2.376       0.058
 C          13.566     -12.665       0.538
 C          15.870      -3.937      -0.521
 C          14.443      -3.920      -0.542
 C          12.307       2.391       0.116
 C          12.114     -12.645       0.426
 C          13.664      -5.156      -0.424
 C          11.552       1.163      -0.024
 C          11.371     -13.912       0.444
 C          12.188      -5.132      -0.237
 C          10.081       1.175       0.047
 C           9.890     -13.860       0.462
 C          20.956      -2.718       0.106
 C          18.690     -11.479       0.613
 C          20.282      -3.981       0.026
 C          18.146       2.329       0.220
 C          17.933     -12.719       0.508
 C          18.820      -3.961      -0.136
 C          16.667       2.344       0.096
 C          16.480     -12.704       0.576
 C          18.084      -5.207      -0.128
 C          15.945       1.116      -0.243
 C          15.736     -13.951       0.530
 C          16.611      -5.197      -0.355
 C          14.489       1.134      -0.264
 C          14.276     -13.934       0.514
 C          15.872      -6.418      -0.148
 C          13.725      -0.118      -0.405
 C          13.527     -15.186       0.579
 C          14.360      -6.400      -0.184
 C          12.254      -0.071      -0.306
 C          12.084     -15.140       0.581
 C          20.929      -5.234       0.192
 C          18.871       1.077       0.098
 C          18.641     -14.001       0.529
 C          20.220      -6.488       0.271
 C          18.147      -0.146      -0.217
 C          17.897     -15.210       0.636
 C          18.785      -6.490       0.009
 C          16.678      -0.151      -0.340
 C          16.454     -15.218       0.609
 C          18.028      -7.739       0.092
 C          15.676     -16.453       0.691
 C          16.567      -7.717      -0.077
 C          14.278     -16.439       0.681
 C          20.901      -7.729       0.525
 C          20.198      -8.979       0.591
 C          18.723      -8.959       0.472
 C          20.881     -10.276       0.580
 C          20.158     -11.495       0.482
 C          11.459      -6.399      -0.147
 C          21.048       2.326       0.091
 C          20.832     -12.807       0.470
 C          20.338       1.056       0.222
 C          20.120     -13.989       0.578
 C          21.007      -0.214       0.237
 C          10.001      -6.363       0.044
 C          10.010      -3.849      -0.205
 C          10.073      -1.321      -0.146
 C           9.368      -2.576      -0.175
 C           9.329      -5.097      -0.076
 C           9.272      -7.587       0.298
 C           9.375      -0.072       0.018
