   142
 frame    361
 H          22.172       4.851      -0.067
 H          20.938       7.032      -0.099
 H          18.753       8.311      -0.074
 H          14.063       9.635      -0.055
 H          16.571       9.603      -0.037
 H           9.637       7.173      -0.196
 H           8.348       5.026      -0.217
 H          11.850       8.399      -0.126
 H           8.142     -10.125       0.251
 H           8.313       2.496      -0.186
 H           8.113     -12.652       0.384
 H           9.346     -14.828       0.525
 H          11.529     -16.106       0.629
 H          16.217     -17.428       0.736
 H          13.711     -17.396       0.717
 H          20.647     -14.970       0.637
 H          22.082      -2.727       0.249
 H          22.049      -5.248       0.355
 H          22.011      -7.770       0.426
 H          21.972     -10.296       0.489
 H          22.143       2.322       0.013
 H          21.936     -12.823       0.564
 H          18.431     -16.193       0.686
 H          22.114      -0.204       0.122
 H           8.238      -2.554      -0.062
 H           8.203      -5.077       0.031
 H           8.170      -7.600       0.134
 H           8.273      -0.032      -0.137
 C          18.882       3.620      -0.297
 C          20.364       3.566      -0.244
 C          21.089       4.869      -0.277
 C          16.715       4.937      -0.653
 C          18.158       4.897      -0.391
 C          18.917       6.144      -0.369
 C          20.424       6.083      -0.316
 C          12.375       4.966      -0.462
 C          13.824       4.969      -0.693
 C          14.544       6.237      -0.839
 C          16.026       6.215      -0.836
 C          16.752       7.447      -0.522
 C          18.177       7.368      -0.324
 C          11.640       6.238      -0.444
 C          12.403       7.444      -0.379
 C          13.831       7.489      -0.557
 C          14.611       8.711      -0.281
 C          15.998       8.690      -0.275
 C           9.441       5.019      -0.396
 C          10.142       6.216      -0.413
 C          13.641      -7.694      -0.299
 C          12.172      -7.688      -0.349
 C          11.422      -8.927      -0.124
 C           9.965      -8.867       0.099
 C          11.534      -1.335      -0.448
 C           9.245     -10.137       0.181
 C          15.828      -8.993      -0.151
 C          14.339      -8.971      -0.188
 C          15.930      -1.419      -0.413
 C          13.605     -10.244      -0.210
 C          14.428      -1.407      -0.441
 C          12.143     -10.197      -0.127
 C          13.646      -2.614      -0.154
 C          11.613       3.710      -0.392
 C          11.403     -11.435       0.072
 C          12.197      -2.637      -0.414
 C          10.134       3.698      -0.367
 C           9.916     -11.387       0.098
 C          11.435      -3.878      -0.456
 C           9.421       2.469      -0.223
 C           9.201     -12.690       0.183
 C          20.302      -1.482      -0.050
 C          17.991     -10.272      -0.017
 C          18.833      -1.424      -0.300
 C          16.532     -10.282      -0.141
 C          18.143      -2.710      -0.282
 C          15.979       3.676      -0.670
 C          15.789     -11.542      -0.222
 C          16.676      -2.654      -0.098
 C          14.522       3.690      -0.709
 C          14.322     -11.523      -0.244
 C          13.771       2.437      -0.588
 C          13.584     -12.776      -0.159
 C          15.901      -3.904       0.104
 C          14.377      -3.888       0.068
 C          12.307       2.439      -0.510
 C          12.138     -12.714       0.075
 C          13.619      -5.148      -0.073
 C          11.561       1.189      -0.452
 C          11.381     -13.973       0.169
 C          12.164      -5.126      -0.353
 C          10.100       1.177      -0.245
 C           9.882     -13.900       0.238
 C          21.029      -2.735      -0.032
 C          18.686     -11.526       0.190
 C          20.362      -3.979      -0.182
 C          18.155       2.366      -0.418
 C          17.923     -12.796       0.154
 C          18.867      -3.967      -0.282
 C          16.697       2.404      -0.541
 C          16.486     -12.818      -0.118
 C          18.106      -5.200      -0.196
 C          15.961       1.142      -0.485
 C          15.763     -14.086      -0.226
 C          16.634      -5.186      -0.009
 C          14.472       1.159      -0.513
 C          14.271     -14.070      -0.238
 C          15.868      -6.421      -0.255
 C          13.739      -0.102      -0.541
 C          13.532     -15.272       0.126
 C          14.366      -6.406      -0.291
 C          12.277      -0.083      -0.601
 C          12.109     -15.188       0.310
 C          20.984      -5.227       0.066
 C          18.870       1.091      -0.329
 C          18.647     -14.060       0.258
 C          20.228      -6.470       0.143
 C          18.123      -0.158      -0.476
 C          17.881     -15.261       0.376
 C          18.768      -6.504      -0.124
 C          16.658      -0.139      -0.489
 C          16.460     -15.310       0.150
 C          18.025      -7.763      -0.230
 C          15.669     -16.509       0.464
 C          16.561      -7.735      -0.246
 C          14.282     -16.497       0.449
 C          20.893      -7.739       0.369
 C          20.182      -8.997       0.302
 C          18.738      -9.019       0.011
 C          20.871     -10.280       0.389
 C          20.177     -11.510       0.260
 C          11.471      -6.415      -0.289
 C          21.034       2.326      -0.052
 C          20.855     -12.838       0.323
 C          20.320       1.052      -0.055
 C          20.149     -14.031       0.335
 C          20.995      -0.220       0.078
 C           9.994      -6.336      -0.096
 C           9.936      -3.853      -0.427
 C          10.055      -1.357      -0.270
 C           9.303      -2.592      -0.295
 C           9.274      -5.081      -0.201
 C           9.292      -7.588       0.122
 C           9.394      -0.078      -0.137
