   142
 frame    983
 H          22.172       4.851      -0.067
 H          20.938       7.032      -0.099
 H          18.753       8.311      -0.074
 H          14.063       9.635      -0.055
 H          16.571       9.603      -0.037
 H           9.637       7.173      -0.196
 H           8.348       5.026      -0.217
 H          11.850       8.399      -0.126
 H           8.142     -10.125       0.251
 H           8.313       2.496      -0.186
 H           8.113     -12.652       0.384
 H           9.346     -14.828       0.525
 H          11.529     -16.106       0.629
 H          16.217     -17.428       0.736
 H          13.711     -17.396       0.717
 H          20.647     -14.970       0.637
 H          22.082      -2.727       0.249
 H          22.049      -5.248       0.355
 H          22.011      -7.770       0.426
 H          21.972     -10.296       0.489
 H          22.143       2.322       0.013
 H          21.936     -12.823       0.564
 H          18.431     -16.193       0.686
 H          22.114      -0.204       0.122
 H           8.238      -2.554      -0.062
 H           8.203      -5.077       0.031
 H           8.170      -7.600       0.134
 H           8.273      -0.032      -0.137
 C          18.884       3.581      -0.060
 C          20.346       3.588      -0.045
 C          21.054       4.892      -0.032
 C          16.690       4.859       0.121
 C          18.147       4.849       0.002
 C          18.858       6.151      -0.132
 C          20.329       6.088      -0.080
 C          12.365       4.916      -0.051
 C          13.820       4.897       0.078
 C          14.542       6.141       0.177
 C          16.005       6.115       0.188
 C          16.735       7.384       0.061
 C          18.153       7.383      -0.099
 C          11.686       6.244      -0.203
 C          12.423       7.456      -0.133
 C          13.847       7.427       0.035
 C          14.611       8.675      -0.037
 C          15.998       8.659      -0.030
 C           9.467       5.048      -0.163
 C          10.216       6.226      -0.170
 C          13.628      -7.624       0.936
 C          12.189      -7.642       0.775
 C          11.467      -8.870       0.478
 C           9.986      -8.859       0.285
 C          11.535      -1.319       0.570
 C           9.267     -10.127       0.239
 C          15.800      -8.910       0.832
 C          14.333      -8.892       0.804
 C          15.885      -1.404       0.777
 C          13.587     -10.128       0.568
 C          14.429      -1.386       0.755
 C          12.148     -10.110       0.407
 C          13.706      -2.626       0.851
 C          11.599       3.675      -0.154
 C          11.399     -11.387       0.344
 C          12.219      -2.601       0.754
 C          10.127       3.723      -0.166
 C           9.928     -11.394       0.336
 C          11.467      -3.835       0.792
 C           9.437       2.463      -0.182
 C           9.227     -12.697       0.444
 C          20.226      -1.456       0.435
 C          17.965     -10.180       0.496
 C          18.787      -1.415       0.713
 C          16.521     -10.164       0.615
 C          18.068      -2.678       0.891
 C          15.968       3.572       0.052
 C          15.767     -11.386       0.550
 C          16.579      -2.661       0.899
 C          14.518       3.588       0.028
 C          14.324     -11.370       0.527
 C          13.748       2.370       0.131
 C          13.598     -12.650       0.631
 C          15.820      -3.881       0.976
 C          14.429      -3.863       0.954
 C          12.307       2.392      -0.030
 C          12.138     -12.639       0.488
 C          13.673      -5.086       0.932
 C          11.595       1.180       0.143
 C          11.423     -13.947       0.439
 C          12.189      -5.079       0.859
 C          10.117       1.186      -0.066
 C           9.955     -13.891       0.479
 C          20.975      -2.698       0.536
 C          18.685     -11.475       0.446
 C          20.284      -3.942       0.817
 C          18.137       2.312       0.067
 C          17.909     -12.708       0.570
 C          18.803      -3.924       0.970
 C          16.692       2.338       0.185
 C          16.448     -12.680       0.680
 C          18.033      -5.146       0.984
 C          15.930       1.131       0.508
 C          15.737     -13.917       0.815
 C          16.550      -5.122       1.000
 C          14.460       1.150       0.486
 C          14.280     -13.897       0.815
 C          15.820      -6.368       0.971
 C          13.734      -0.100       0.677
 C          13.557     -15.171       0.725
 C          14.358      -6.353       0.944
 C          12.290      -0.052       0.513
 C          12.129     -15.176       0.555
 C          20.939      -5.233       0.639
 C          18.810       1.085       0.258
 C          18.595     -14.043       0.500
 C          20.171      -6.449       0.622
 C          18.072      -0.120       0.632
 C          17.856     -15.249       0.595
 C          18.725      -6.448       0.896
 C          16.619      -0.134       0.737
 C          16.426     -15.216       0.748
 C          17.967      -7.716       0.876
 C          15.670     -16.465       0.713
 C          16.528      -7.663       0.981
 C          14.277     -16.442       0.698
 C          20.871      -7.716       0.426
 C          20.161      -8.977       0.474
 C          18.671      -8.955       0.606
 C          20.851     -10.264       0.436
 C          20.162     -11.516       0.480
 C          11.470      -6.359       0.737
 C          21.008       2.317      -0.023
 C          20.816     -12.835       0.580
 C          20.294       1.048       0.103
 C          20.060     -14.017       0.574
 C          20.966      -0.237       0.131
 C          10.045      -6.326       0.409
 C           9.982      -3.813       0.581
 C          10.101      -1.334       0.239
 C           9.332      -2.552       0.292
 C           9.301      -5.093       0.379
 C           9.317      -7.580       0.191
 C           9.413      -0.091      -0.080
