   142
 frame    178
 H          22.172       4.851      -0.067
 H          20.938       7.032      -0.099
 H          18.753       8.311      -0.074
 H          14.063       9.635      -0.055
 H          16.571       9.603      -0.037
 H           9.637       7.173      -0.196
 H           8.348       5.026      -0.217
 H          11.850       8.399      -0.126
 H           8.142     -10.125       0.251
 H           8.313       2.496      -0.186
 H           8.113     -12.652       0.384
 H           9.346     -14.828       0.525
 H          11.529     -16.106       0.629
 H          16.217     -17.428       0.736
 H          13.711     -17.396       0.717
 H          20.647     -14.970       0.637
 H          22.082      -2.727       0.249
 H          22.049      -5.248       0.355
 H          22.011      -7.770       0.426
 H          21.972     -10.296       0.489
 H          22.143       2.322       0.013
 H          21.936     -12.823       0.564
 H          18.431     -16.193       0.686
 H          22.114      -0.204       0.122
 H           8.238      -2.554      -0.062
 H           8.203      -5.077       0.031
 H           8.170      -7.600       0.134
 H           8.273      -0.032      -0.137
 C          18.890       3.597      -0.071
 C          20.364       3.585      -0.061
 C          21.074       4.886       0.078
 C          16.735       4.868      -0.133
 C          18.175       4.870       0.052
 C          18.928       6.132       0.299
 C          20.433       6.103       0.213
 C          12.343       4.946      -0.007
 C          13.788       4.904      -0.143
 C          14.539       6.133      -0.037
 C          16.007       6.116      -0.019
 C          16.749       7.368       0.145
 C          18.198       7.365       0.220
 C          11.613       6.218       0.224
 C          12.372       7.432       0.181
 C          13.824       7.399       0.113
 C          14.600       8.645       0.045
 C          15.999       8.629       0.054
 C           9.442       5.029      -0.057
 C          10.116       6.226       0.104
 C          13.614      -7.646      -0.201
 C          12.148      -7.646      -0.343
 C          11.420      -8.915      -0.123
 C           9.946      -8.904      -0.057
 C          11.503      -1.380      -0.698
 C           9.237     -10.171       0.068
 C          15.806      -8.935      -0.003
 C          14.357      -8.917      -0.027
 C          15.943      -1.440      -0.311
 C          13.608     -10.155       0.222
 C          14.430      -1.419      -0.349
 C          12.124     -10.151       0.178
 C          13.701      -2.666      -0.536
 C          11.598       3.690      -0.154
 C          11.390     -11.402       0.342
 C          12.240      -2.643      -0.646
 C          10.122       3.717      -0.195
 C           9.921     -11.390       0.312
 C          11.510      -3.882      -0.612
 C           9.411       2.493      -0.354
 C           9.210     -12.668       0.546
 C          20.302      -1.460      -0.188
 C          17.996     -10.222       0.282
 C          18.870      -1.481      -0.557
 C          16.512     -10.191       0.255
 C          18.107      -2.721      -0.537
 C          15.985       3.610      -0.148
 C          15.777     -11.440       0.371
 C          16.639      -2.710      -0.450
 C          14.510       3.630      -0.159
 C          14.314     -11.419       0.348
 C          13.777       2.378      -0.215
 C          13.554     -12.674       0.416
 C          15.880      -3.944      -0.487
 C          14.429      -3.929      -0.529
 C          12.295       2.412      -0.251
 C          12.103     -12.665       0.573
 C          13.672      -5.154      -0.444
 C          11.558       1.173      -0.468
 C          11.345     -13.905       0.889
 C          12.213      -5.134      -0.555
 C          10.089       1.201      -0.409
 C           9.848     -13.874       0.768
 C          20.998      -2.713      -0.042
 C          18.693     -11.491       0.458
 C          20.272      -3.975      -0.053
 C          18.165       2.333      -0.161
 C          17.941     -12.736       0.644
 C          18.796      -3.973      -0.459
 C          16.678       2.335      -0.163
 C          16.501     -12.713       0.464
 C          18.067      -5.201      -0.438
 C          15.933       1.091      -0.358
 C          15.747     -13.937       0.619
 C          16.605      -5.186      -0.371
 C          14.497       1.108      -0.374
 C          14.274     -13.914       0.601
 C          15.873      -6.415      -0.146
 C          13.718      -0.151      -0.472
 C          13.521     -15.154       0.823
 C          14.368      -6.398      -0.167
 C          12.248      -0.131      -0.590
 C          12.074     -15.141       0.894
 C          20.964      -5.245       0.064
 C          18.877       1.079      -0.334
 C          18.661     -14.002       0.966
 C          20.227      -6.497       0.003
 C          18.152      -0.209      -0.490
 C          17.898     -15.225       0.948
 C          18.795      -6.470      -0.368
 C          16.681      -0.190      -0.409
 C          16.456     -15.197       0.846
 C          18.054      -7.715      -0.217
 C          15.669     -16.438       0.811
 C          16.582      -7.681      -0.136
 C          14.269     -16.417       0.799
 C          20.915      -7.763       0.211
 C          20.209      -9.027       0.144
 C          18.742      -9.002       0.014
 C          20.883     -10.312       0.272
 C          20.161     -11.517       0.477
 C          11.446      -6.386      -0.530
 C          21.053       2.343      -0.194
 C          20.841     -12.814       0.705
 C          20.339       1.067      -0.247
 C          20.163     -14.008       0.878
 C          21.014      -0.203      -0.079
 C          10.000      -6.373      -0.218
 C          10.025      -3.844      -0.280
 C          10.063      -1.330      -0.389
 C           9.327      -2.570      -0.303
 C           9.295      -5.105      -0.203
 C           9.266      -7.623      -0.027
 C           9.374      -0.055      -0.298
