   142
 frame     43
 H          22.172       4.851      -0.067
 H          20.938       7.032      -0.099
 H          18.753       8.311      -0.074
 H          14.063       9.635      -0.055
 H          16.571       9.603      -0.037
 H           9.637       7.173      -0.196
 H           8.348       5.026      -0.217
 H          11.850       8.399      -0.126
 H           8.142     -10.125       0.251
 H           8.313       2.496      -0.186
 H           8.113     -12.652       0.384
 H           9.346     -14.828       0.525
 H          11.529     -16.106       0.629
 H          16.217     -17.428       0.736
 H          13.711     -17.396       0.717
 H          20.647     -14.970       0.637
 H          22.082      -2.727       0.249
 H          22.049      -5.248       0.355
 H          22.011      -7.770       0.426
 H          21.972     -10.296       0.489
 H          22.143       2.322       0.013
 H          21.936     -12.823       0.564
 H          18.431     -16.193       0.686
 H          22.114      -0.204       0.122
 H           8.238      -2.554      -0.062
 H           8.203      -5.077       0.031
 H           8.170      -7.600       0.134
 H           8.273      -0.032      -0.137
 C          18.873       3.581      -0.024
 C          20.348       3.565      -0.024
 C          21.063       4.864      -0.061
 C          16.711       4.865      -0.057
 C          18.166       4.846      -0.052
 C          18.907       6.123      -0.071
 C          20.382       6.071      -0.078
 C          12.350       4.919      -0.116
 C          13.805       4.901      -0.090
 C          14.545       6.153      -0.083
 C          16.002       6.134      -0.069
 C          16.748       7.392      -0.067
 C          18.191       7.355      -0.071
 C          11.642       6.214      -0.140
 C          12.387       7.428      -0.119
 C          13.830       7.429      -0.090
 C          14.607       8.668      -0.067
 C          16.002       8.651      -0.057
 C           9.458       5.010      -0.188
 C          10.168       6.199      -0.177
 C          13.630      -7.617       0.479
 C          12.170      -7.619       0.293
 C          11.434      -8.881       0.243
 C           9.967      -8.864       0.229
 C          11.532      -1.342       0.102
 C           9.255     -10.127       0.290
 C          15.806      -8.909       0.432
 C          14.344      -8.894       0.403
 C          15.891      -1.430       0.085
 C          13.606     -10.152       0.350
 C          14.447      -1.400       0.020
 C          12.148     -10.136       0.342
 C          13.713      -2.697      -0.240
 C          11.611       3.672      -0.119
 C          11.408     -11.385       0.408
 C          12.241      -2.611       0.032
 C          10.138       3.692      -0.154
 C           9.935     -11.369       0.367
 C          11.513      -3.843       0.195
 C           9.425       2.468      -0.154
 C           9.221     -12.666       0.410
 C          20.301      -1.453       0.185
 C          17.972     -10.208       0.444
 C          18.812      -1.439       0.230
 C          16.514     -10.186       0.401
 C          18.060      -2.687       0.179
 C          15.970       3.616      -0.069
 C          15.770     -11.430       0.462
 C          16.620      -2.715      -0.175
 C          14.515       3.637      -0.091
 C          14.313     -11.412       0.440
 C          13.768       2.403      -0.104
 C          13.572     -12.664       0.504
 C          15.930      -3.937      -0.629
 C          14.380      -3.915      -0.687
 C          12.313       2.410      -0.110
 C          12.116     -12.650       0.478
 C          13.675      -5.095      -0.143
 C          11.560       1.178      -0.126
 C          11.375     -13.923       0.519
 C          12.200      -5.109       0.129
 C          10.097       1.188      -0.135
 C           9.901     -13.870       0.486
 C          20.990      -2.717       0.210
 C          18.675     -11.478       0.518
 C          20.269      -3.961       0.354
 C          18.140       2.333      -0.022
 C          17.935     -12.723       0.553
 C          18.759      -3.935       0.336
 C          16.688       2.364      -0.065
 C          16.479     -12.701       0.542
 C          18.043      -5.187       0.241
 C          15.943       1.113       0.035
 C          15.737     -13.952       0.584
 C          16.595      -5.137      -0.080
 C          14.474       1.134       0.024
 C          14.280     -13.933       0.568
 C          15.833      -6.393       0.244
 C          13.728      -0.123       0.177
 C          13.533     -15.189       0.613
 C          14.373      -6.370       0.222
 C          12.259      -0.092       0.008
 C          12.091     -15.152       0.590
 C          20.954      -5.241       0.315
 C          18.858       1.080      -0.008
 C          18.642     -14.014       0.600
 C          20.221      -6.472       0.406
 C          18.121      -0.170       0.096
 C          17.895     -15.225       0.645
 C          18.732      -6.439       0.444
 C          16.647      -0.161       0.228
 C          16.453     -15.226       0.639
 C          18.006      -7.686       0.415
 C          15.674     -16.463       0.689
 C          16.543      -7.648       0.534
 C          14.279     -16.445       0.678
 C          20.901      -7.753       0.396
 C          20.183      -8.991       0.426
 C          18.714      -8.966       0.384
 C          20.860     -10.273       0.491
 C          20.149     -11.498       0.524
 C          11.471      -6.353       0.290
 C          21.029       2.324       0.017
 C          20.829     -12.811       0.563
 C          20.322       1.057       0.039
 C          20.117     -13.998       0.601
 C          21.012      -0.192       0.093
 C           9.984      -6.351       0.178
 C           9.997      -3.834       0.136
 C          10.040      -1.320      -0.011
 C           9.320      -2.568      -0.049
 C           9.290      -5.097       0.045
 C           9.277      -7.613       0.152
 C           9.372      -0.042      -0.126
