   142
 frame    573
 H          22.172       4.851      -0.067
 H          20.938       7.032      -0.099
 H          18.753       8.311      -0.074
 H          14.063       9.635      -0.055
 H          16.571       9.603      -0.037
 H           9.637       7.173      -0.196
 H           8.348       5.026      -0.217
 H          11.850       8.399      -0.126
 H           8.142     -10.125       0.251
 H           8.313       2.496      -0.186
 H           8.113     -12.652       0.384
 H           9.346     -14.828       0.525
 H          11.529     -16.106       0.629
 H          16.217     -17.428       0.736
 H          13.711     -17.396       0.717
 H          20.647     -14.970       0.637
 H          22.082      -2.727       0.249
 H          22.049      -5.248       0.355
 H          22.011      -7.770       0.426
 H          21.972     -10.296       0.489
 H          22.143       2.322       0.013
 H          21.936     -12.823       0.564
 H          18.431     -16.193       0.686
 H          22.114      -0.204       0.122
 H           8.238      -2.554      -0.062
 H           8.203      -5.077       0.031
 H           8.170      -7.600       0.134
 H           8.273      -0.032      -0.137
 C          18.869       3.655      -0.056
 C          20.353       3.609       0.054
 C          21.079       4.917       0.008
 C          16.702       4.899      -0.176
 C          18.161       4.919      -0.049
 C          18.909       6.163       0.048
 C          20.380       6.101       0.072
 C          12.358       4.992      -0.112
 C          13.808       4.946      -0.212
 C          14.560       6.180      -0.234
 C          15.998       6.158      -0.227
 C          16.765       7.395      -0.120
 C          18.202       7.381       0.026
 C          11.636       6.259      -0.021
 C          12.377       7.455      -0.032
 C          13.820       7.441      -0.168
 C          14.603       8.666      -0.148
 C          16.010       8.645      -0.126
 C           9.441       5.059      -0.108
 C          10.164       6.235      -0.015
 C          13.631      -7.614       0.402
 C          12.171      -7.620       0.300
 C          11.447      -8.895       0.272
 C           9.969      -8.880       0.168
 C          11.555      -1.337      -0.181
 C           9.242     -10.149       0.286
 C          15.822      -8.917       0.584
 C          14.323      -8.895       0.553
 C          15.902      -1.398      -0.131
 C          13.596     -10.143       0.438
 C          14.459      -1.382      -0.173
 C          12.151     -10.174       0.282
 C          13.726      -2.613      -0.245
 C          11.618       3.748      -0.154
 C          11.410     -11.458       0.334
 C          12.262      -2.612      -0.350
 C          10.131       3.739      -0.093
 C           9.920     -11.394       0.422
 C          11.523      -3.861      -0.246
 C           9.417       2.502      -0.134
 C           9.210     -12.704       0.472
 C          20.283      -1.431      -0.058
 C          17.974     -10.248       0.367
 C          18.797      -1.428      -0.064
 C          16.520     -10.183       0.492
 C          18.077      -2.686      -0.237
 C          15.976       3.647      -0.102
 C          15.780     -11.458       0.401
 C          16.607      -2.655      -0.171
 C          14.512       3.666      -0.119
 C          14.305     -11.441       0.393
 C          13.776       2.402       0.027
 C          13.578     -12.708       0.369
 C          15.882      -3.918      -0.078
 C          14.414      -3.906      -0.112
 C          12.321       2.457      -0.126
 C          12.115     -12.719       0.461
 C          13.683      -5.180      -0.163
 C          11.587       1.196      -0.052
 C          11.370     -13.962       0.633
 C          12.218      -5.138      -0.251
 C          10.104       1.207      -0.166
 C           9.901     -13.888       0.647
 C          20.956      -2.697       0.149
 C          18.675     -11.548       0.444
 C          20.248      -3.967       0.098
 C          18.135       2.375      -0.045
 C          17.934     -12.790       0.538
 C          18.784      -3.955      -0.110
 C          16.677       2.358       0.071
 C          16.475     -12.734       0.391
 C          18.056      -5.215      -0.130
 C          15.953       1.124       0.244
 C          15.727     -13.978       0.421
 C          16.582      -5.214      -0.106
 C          14.457       1.136       0.221
 C          14.294     -13.967       0.409
 C          15.836      -6.439       0.036
 C          13.735      -0.143       0.150
 C          13.515     -15.195       0.558
 C          14.384      -6.423       0.009
 C          12.278      -0.103       0.052
 C          12.075     -15.173       0.668
 C          20.920      -5.258       0.237
 C          18.830       1.104       0.047
 C          18.650     -14.051       0.727
 C          20.205      -6.513       0.129
 C          18.110      -0.172       0.133
 C          17.907     -15.245       0.733
 C          18.727      -6.469       0.144
 C          16.650      -0.179       0.193
 C          16.479     -15.231       0.577
 C          18.013      -7.694       0.392
 C          15.684     -16.455       0.628
 C          16.550      -7.649       0.460
 C          14.274     -16.435       0.616
 C          20.919      -7.775       0.232
 C          20.191      -9.008       0.355
 C          18.707      -8.981       0.385
 C          20.878     -10.298       0.492
 C          20.162     -11.523       0.584
 C          11.493      -6.377       0.009
 C          21.039       2.358       0.036
 C          20.838     -12.835       0.631
 C          20.321       1.073      -0.000
 C          20.109     -14.008       0.758
 C          21.028      -0.183      -0.041
 C          10.018      -6.388      -0.085
 C          10.047      -3.840      -0.112
 C          10.074      -1.301      -0.257
 C           9.366      -2.548      -0.098
 C           9.336      -5.110      -0.011
 C           9.268      -7.633      -0.002
 C           9.369      -0.034      -0.261
