   142
 frame    784
 H          22.172       4.851      -0.067
 H          20.938       7.032      -0.099
 H          18.753       8.311      -0.074
 H          14.063       9.635      -0.055
 H          16.571       9.603      -0.037
 H           9.637       7.173      -0.196
 H           8.348       5.026      -0.217
 H          11.850       8.399      -0.126
 H           8.142     -10.125       0.251
 H           8.313       2.496      -0.186
 H           8.113     -12.652       0.384
 H           9.346     -14.828       0.525
 H          11.529     -16.106       0.629
 H          16.217     -17.428       0.736
 H          13.711     -17.396       0.717
 H          20.647     -14.970       0.637
 H          22.082      -2.727       0.249
 H          22.049      -5.248       0.355
 H          22.011      -7.770       0.426
 H          21.972     -10.296       0.489
 H          22.143       2.322       0.013
 H          21.936     -12.823       0.564
 H          18.431     -16.193       0.686
 H          22.114      -0.204       0.122
 H           8.238      -2.554      -0.062
 H           8.203      -5.077       0.031
 H           8.170      -7.600       0.134
 H           8.273      -0.032      -0.137
 C          18.852       3.613       0.287
 C          20.342       3.603       0.146
 C          21.059       4.864      -0.116
 C          16.714       4.873       0.427
 C          18.183       4.890       0.293
 C          18.900       6.143      -0.062
 C          20.384       6.073      -0.216
 C          12.332       4.969       0.217
 C          13.799       4.916       0.396
 C          14.553       6.126       0.196
 C          15.982       6.108       0.196
 C          16.720       7.381       0.079
 C          18.166       7.358      -0.108
 C          11.649       6.232      -0.134
 C          12.419       7.429      -0.159
 C          13.857       7.420       0.050
 C          14.602       8.688       0.114
 C          16.003       8.674       0.134
 C           9.463       5.011      -0.237
 C          10.165       6.199      -0.315
 C          13.608      -7.663       0.744
 C          12.159      -7.636       0.671
 C          11.454      -8.894       0.533
 C           9.957      -8.882       0.415
 C          11.506      -1.314       0.345
 C           9.232     -10.186       0.465
 C          15.803      -8.906       0.868
 C          14.338      -8.892       0.839
 C          15.893      -1.353       0.486
 C          13.618     -10.134       0.834
 C          14.445      -1.334       0.446
 C          12.172     -10.141       0.702
 C          13.737      -2.598       0.454
 C          11.627       3.704       0.190
 C          11.425     -11.393       0.712
 C          12.276      -2.566       0.397
 C          10.141       3.723       0.007
 C           9.943     -11.390       0.537
 C          11.587      -3.846       0.318
 C           9.409       2.531       0.044
 C           9.236     -12.669       0.360
 C          20.290      -1.445       0.271
 C          17.940     -10.220       0.810
 C          18.827      -1.409       0.501
 C          16.491     -10.169       0.893
 C          18.035      -2.637       0.532
 C          15.970       3.634       0.606
 C          15.768     -11.419       1.142
 C          16.568      -2.634       0.531
 C          14.498       3.646       0.605
 C          14.291     -11.401       1.122
 C          13.772       2.404       0.393
 C          13.564     -12.652       0.986
 C          15.854      -3.891       0.582
 C          14.411      -3.873       0.565
 C          12.341       2.448       0.262
 C          12.095     -12.669       0.814
 C          13.701      -5.135       0.573
 C          11.582       1.204       0.176
 C          11.393     -13.928       0.513
 C          12.243      -5.143       0.503
 C          10.094       1.217       0.054
 C           9.901     -13.883       0.332
 C          20.928      -2.718       0.259
 C          18.654     -11.485       0.841
 C          20.186      -3.964       0.352
 C          18.105       2.374       0.355
 C          17.953     -12.749       0.908
 C          18.693      -3.938       0.494
 C          16.665       2.360       0.431
 C          16.475     -12.689       1.023
 C          17.995      -5.214       0.647
 C          15.941       1.122       0.472
 C          15.716     -13.907       0.866
 C          16.537      -5.175       0.630
 C          14.463       1.138       0.458
 C          14.292     -13.888       0.839
 C          15.829      -6.432       0.690
 C          13.704      -0.070       0.449
 C          13.567     -15.170       0.759
 C          14.371      -6.408       0.666
 C          12.250      -0.060       0.403
 C          12.129     -15.151       0.548
 C          20.897      -5.229       0.366
 C          18.837       1.108       0.299
 C          18.632     -14.018       0.597
 C          20.211      -6.478       0.480
 C          18.123      -0.137       0.501
 C          17.856     -15.219       0.610
 C          18.755      -6.465       0.717
 C          16.664      -0.109       0.506
 C          16.413     -15.206       0.787
 C          18.017      -7.708       0.788
 C          15.671     -16.476       0.888
 C          16.565      -7.695       0.822
 C          14.272     -16.458       0.883
 C          20.901      -7.766       0.457
 C          20.182      -9.009       0.627
 C          18.694      -8.984       0.679
 C          20.876     -10.328       0.683
 C          20.139     -11.520       0.695
 C          11.435      -6.371       0.546
 C          21.054       2.391       0.217
 C          20.817     -12.814       0.515
 C          20.328       1.090       0.234
 C          20.121     -14.010       0.437
 C          21.007      -0.185       0.170
 C           9.996      -6.355       0.233
 C          10.101      -3.837       0.114
 C          10.063      -1.313       0.052
 C           9.391      -2.568      -0.004
 C           9.356      -5.089       0.095
 C           9.278      -7.619       0.211
 C           9.384      -0.032      -0.075
