   142
 frame    198
 H          22.172       4.851      -0.067
 H          20.938       7.032      -0.099
 H          18.753       8.311      -0.074
 H          14.063       9.635      -0.055
 H          16.571       9.603      -0.037
 H           9.637       7.173      -0.196
 H           8.348       5.026      -0.217
 H          11.850       8.399      -0.126
 H           8.142     -10.125       0.251
 H           8.313       2.496      -0.186
 H           8.113     -12.652       0.384
 H           9.346     -14.828       0.525
 H          11.529     -16.106       0.629
 H          16.217     -17.428       0.736
 H          13.711     -17.396       0.717
 H          20.647     -14.970       0.637
 H          22.082      -2.727       0.249
 H          22.049      -5.248       0.355
 H          22.011      -7.770       0.426
 H          21.972     -10.296       0.489
 H          22.143       2.322       0.013
 H          21.936     -12.823       0.564
 H          18.431     -16.193       0.686
 H          22.114      -0.204       0.122
 H           8.238      -2.554      -0.062
 H           8.203      -5.077       0.031
 H           8.170      -7.600       0.134
 H           8.273      -0.032      -0.137
 C          18.892       3.568      -0.082
 C          20.371       3.567      -0.098
 C          21.055       4.870      -0.104
 C          16.719       4.846       0.014
 C          18.175       4.823       0.138
 C          18.901       6.125       0.115
 C          20.374       6.074      -0.086
 C          12.336       4.892       0.078
 C          13.797       4.879      -0.015
 C          14.536       6.153      -0.018
 C          16.010       6.132      -0.025
 C          16.747       7.399       0.132
 C          18.195       7.370       0.155
 C          11.647       6.212       0.037
 C          12.379       7.440       0.096
 C          13.830       7.437       0.120
 C          14.608       8.675       0.136
 C          16.003       8.662       0.154
 C           9.465       5.012      -0.230
 C          10.171       6.201      -0.181
 C          13.647      -7.668      -0.240
 C          12.191      -7.684      -0.368
 C          11.438      -8.932      -0.235
 C           9.970      -8.881      -0.080
 C          11.544      -1.329      -0.538
 C           9.245     -10.132       0.175
 C          15.806      -8.928       0.061
 C          14.357      -8.909       0.028
 C          15.927      -1.401      -0.506
 C          13.597     -10.164       0.051
 C          14.439      -1.388      -0.545
 C          12.133     -10.171      -0.032
 C          13.698      -2.630      -0.593
 C          11.595       3.652      -0.182
 C          11.407     -11.376       0.330
 C          12.240      -2.627      -0.556
 C          10.120       3.687      -0.223
 C           9.931     -11.371       0.280
 C          11.518      -3.875      -0.451
 C           9.407       2.469      -0.263
 C           9.230     -12.678       0.349
 C          20.325      -1.455      -0.258
 C          17.993     -10.248       0.067
 C          18.833      -1.418      -0.400
 C          16.526     -10.201       0.109
 C          18.106      -2.699      -0.425
 C          15.981       3.609      -0.196
 C          15.776     -11.433       0.301
 C          16.638      -2.664      -0.532
 C          14.509       3.623      -0.220
 C          14.313     -11.413       0.289
 C          13.761       2.384      -0.365
 C          13.567     -12.646       0.568
 C          15.882      -3.926      -0.554
 C          14.425      -3.909      -0.587
 C          12.302       2.421      -0.452
 C          12.119     -12.619       0.650
 C          13.665      -5.168      -0.510
 C          11.567       1.184      -0.571
 C          11.392     -13.914       0.675
 C          12.204      -5.144      -0.472
 C          10.096       1.190      -0.422
 C           9.910     -13.876       0.468
 C          20.987      -2.728       0.027
 C          18.678     -11.470       0.445
 C          20.312      -3.988      -0.158
 C          18.163       2.348      -0.364
 C          17.923     -12.696       0.728
 C          18.781      -3.968      -0.296
 C          16.702       2.353      -0.319
 C          16.480     -12.684       0.594
 C          18.073      -5.217      -0.334
 C          15.943       1.085      -0.276
 C          15.743     -13.957       0.626
 C          16.606      -5.211      -0.446
 C          14.491       1.103      -0.318
 C          14.266     -13.938       0.608
 C          15.858      -6.450      -0.328
 C          13.748      -0.126      -0.495
 C          13.530     -15.201       0.815
 C          14.367      -6.432      -0.375
 C          12.292      -0.082      -0.630
 C          12.086     -15.158       0.803
 C          20.959      -5.237       0.129
 C          18.874       1.091      -0.469
 C          18.620     -14.011       0.752
 C          20.257      -6.502      -0.061
 C          18.119      -0.158      -0.517
 C          17.891     -15.237       0.855
 C          18.768      -6.508      -0.212
 C          16.653      -0.163      -0.433
 C          16.450     -15.235       0.849
 C          18.014      -7.756      -0.246
 C          15.674     -16.472       0.903
 C          16.552      -7.705      -0.179
 C          14.277     -16.451       0.893
 C          20.929      -7.751       0.183
 C          20.193      -9.002       0.113
 C          18.729      -9.015      -0.089
 C          20.870     -10.276       0.369
 C          20.152     -11.498       0.442
 C          11.468      -6.424      -0.361
 C          21.053       2.327      -0.098
 C          20.818     -12.824       0.516
 C          20.331       1.060      -0.253
 C          20.104     -14.009       0.595
 C          21.029      -0.212      -0.107
 C           9.975      -6.374      -0.284
 C           9.990      -3.856      -0.392
 C          10.049      -1.326      -0.468
 C           9.336      -2.588      -0.224
 C           9.295      -5.102      -0.139
 C           9.260      -7.608      -0.061
 C           9.360      -0.060      -0.324
