   142
 frame    723
 H          22.172       4.851      -0.067
 H          20.938       7.032      -0.099
 H          18.753       8.311      -0.074
 H          14.063       9.635      -0.055
 H          16.571       9.603      -0.037
 H           9.637       7.173      -0.196
 H           8.348       5.026      -0.217
 H          11.850       8.399      -0.126
 H           8.142     -10.125       0.251
 H           8.313       2.496      -0.186
 H           8.113     -12.652       0.384
 H           9.346     -14.828       0.525
 H          11.529     -16.106       0.629
 H          16.217     -17.428       0.736
 H          13.711     -17.396       0.717
 H          20.647     -14.970       0.637
 H          22.082      -2.727       0.249
 H          22.049      -5.248       0.355
 H          22.011      -7.770       0.426
 H          21.972     -10.296       0.489
 H          22.143       2.322       0.013
 H          21.936     -12.823       0.564
 H          18.431     -16.193       0.686
 H          22.114      -0.204       0.122
 H           8.238      -2.554      -0.062
 H           8.203      -5.077       0.031
 H           8.170      -7.600       0.134
 H           8.273      -0.032      -0.137
 C          18.891       3.612       0.405
 C          20.366       3.600       0.272
 C          21.083       4.886       0.184
 C          16.671       4.874       0.465
 C          18.139       4.875       0.518
 C          18.927       6.147       0.437
 C          20.393       6.100       0.205
 C          12.365       4.937       0.461
 C          13.831       4.908       0.444
 C          14.538       6.171       0.440
 C          15.999       6.153       0.454
 C          16.780       7.388       0.349
 C          18.213       7.386       0.296
 C          11.613       6.242       0.365
 C          12.356       7.454       0.251
 C          13.795       7.427       0.323
 C          14.594       8.638       0.100
 C          16.004       8.618       0.122
 C           9.432       5.031       0.057
 C          10.150       6.224       0.099
 C          13.616      -7.646       0.462
 C          12.163      -7.670       0.425
 C          11.406      -8.911       0.493
 C           9.930      -8.891       0.411
 C          11.557      -1.297       0.134
 C           9.246     -10.124       0.487
 C          15.805      -8.917       0.577
 C          14.334      -8.896       0.530
 C          15.911      -1.364       0.247
 C          13.595     -10.145       0.655
 C          14.441      -1.346       0.201
 C          12.132     -10.151       0.601
 C          13.734      -2.600       0.275
 C          11.592       3.705       0.305
 C          11.396     -11.397       0.831
 C          12.274      -2.592       0.152
 C          10.109       3.712       0.155
 C           9.913     -11.377       0.665
 C          11.543      -3.855       0.169
 C           9.405       2.473       0.062
 C           9.197     -12.669       0.664
 C          20.269      -1.434       0.232
 C          17.980     -10.218       0.721
 C          18.792      -1.394       0.260
 C          16.513     -10.180       0.710
 C          18.042      -2.663       0.281
 C          15.960       3.603       0.316
 C          15.755     -11.400       0.823
 C          16.577      -2.633       0.348
 C          14.520       3.625       0.287
 C          14.317     -11.375       0.805
 C          13.766       2.403       0.208
 C          13.593     -12.643       1.018
 C          15.851      -3.901       0.415
 C          14.422      -3.887       0.377
 C          12.290       2.421       0.163
 C          12.132     -12.640       1.051
 C          13.701      -5.156       0.355
 C          11.534       1.216       0.114
 C          11.347     -13.916       1.018
 C          12.241      -5.135       0.256
 C          10.063       1.214       0.043
 C           9.903     -13.874       0.763
 C          20.946      -2.708       0.329
 C          18.679     -11.494       0.946
 C          20.223      -3.958       0.437
 C          18.151       2.352       0.251
 C          17.901     -12.718       1.135
 C          18.741      -3.944       0.336
 C          16.674       2.361       0.254
 C          16.441     -12.681       1.055
 C          18.007      -5.201       0.402
 C          15.936       1.114       0.181
 C          15.729     -13.948       1.073
 C          16.538      -5.185       0.425
 C          14.469       1.133       0.143
 C          14.269     -13.928       1.061
 C          15.834      -6.447       0.458
 C          13.703      -0.109       0.163
 C          13.498     -15.164       1.007
 C          14.383      -6.435       0.399
 C          12.261      -0.048       0.134
 C          12.054     -15.160       0.958
 C          20.916      -5.236       0.439
 C          18.873       1.116       0.226
 C          18.653     -14.017       1.111
 C          20.202      -6.494       0.433
 C          18.123      -0.117       0.245
 C          17.918     -15.232       1.012
 C          18.724      -6.482       0.484
 C          16.670      -0.138       0.238
 C          16.481     -15.200       1.042
 C          18.009      -7.740       0.555
 C          15.682     -16.421       0.847
 C          16.559      -7.684       0.540
 C          14.272     -16.403       0.841
 C          20.892      -7.767       0.439
 C          20.208      -9.012       0.614
 C          18.728      -9.004       0.629
 C          20.862     -10.265       0.695
 C          20.158     -11.507       0.830
 C          11.495      -6.399       0.300
 C          21.043       2.334       0.207
 C          20.838     -12.808       0.822
 C          20.357       1.093       0.197
 C          20.108     -14.003       0.869
 C          21.002      -0.188       0.125
 C          10.015      -6.369       0.195
 C          10.051      -3.842       0.208
 C          10.081      -1.310       0.009
 C           9.366      -2.563       0.075
 C           9.325      -5.096       0.158
 C           9.288      -7.627       0.193
 C           9.391      -0.041      -0.102
