   142
 frame    556
 H          22.172       4.851      -0.067
 H          20.938       7.032      -0.099
 H          18.753       8.311      -0.074
 H          14.063       9.635      -0.055
 H          16.571       9.603      -0.037
 H           9.637       7.173      -0.196
 H           8.348       5.026      -0.217
 H          11.850       8.399      -0.126
 H           8.142     -10.125       0.251
 H           8.313       2.496      -0.186
 H           8.113     -12.652       0.384
 H           9.346     -14.828       0.525
 H          11.529     -16.106       0.629
 H          16.217     -17.428       0.736
 H          13.711     -17.396       0.717
 H          20.647     -14.970       0.637
 H          22.082      -2.727       0.249
 H          22.049      -5.248       0.355
 H          22.011      -7.770       0.426
 H          21.972     -10.296       0.489
 H          22.143       2.322       0.013
 H          21.936     -12.823       0.564
 H          18.431     -16.193       0.686
 H          22.114      -0.204       0.122
 H           8.238      -2.554      -0.062
 H           8.203      -5.077       0.031
 H           8.170      -7.600       0.134
 H           8.273      -0.032      -0.137
 C          18.889       3.600      -0.046
 C          20.338       3.575       0.007
 C          21.067       4.843       0.002
 C          16.725       4.903      -0.285
 C          18.174       4.869      -0.033
 C          18.945       6.132       0.138
 C          20.419       6.060       0.045
 C          12.349       4.939      -0.104
 C          13.803       4.936      -0.307
 C          14.529       6.216      -0.434
 C          16.026       6.200      -0.420
 C          16.773       7.427      -0.146
 C          18.217       7.366       0.061
 C          11.597       6.228       0.060
 C          12.359       7.435      -0.008
 C          13.809       7.456      -0.167
 C          14.610       8.690      -0.088
 C          15.995       8.679      -0.077
 C           9.446       4.987      -0.119
 C          10.133       6.191      -0.051
 C          13.639      -7.672       0.216
 C          12.155      -7.639       0.180
 C          11.405      -8.892       0.217
 C           9.938      -8.877       0.220
 C          11.509      -1.337      -0.258
 C           9.249     -10.153       0.340
 C          15.798      -8.939       0.430
 C          14.354      -8.921       0.402
 C          15.926      -1.395      -0.101
 C          13.591     -10.184       0.331
 C          14.441      -1.379      -0.134
 C          12.106     -10.148       0.241
 C          13.691      -2.635      -0.200
 C          11.600       3.697      -0.148
 C          11.404     -11.411       0.353
 C          12.215      -2.618      -0.283
 C          10.149       3.705      -0.129
 C           9.948     -11.391       0.353
 C          11.498      -3.865      -0.252
 C           9.418       2.491      -0.099
 C           9.207     -12.649       0.464
 C          20.340      -1.454      -0.064
 C          18.014     -10.222       0.334
 C          18.865      -1.430      -0.124
 C          16.524     -10.210       0.359
 C          18.122      -2.692      -0.173
 C          15.983       3.643      -0.220
 C          15.784     -11.469       0.285
 C          16.646      -2.671      -0.143
 C          14.507       3.657      -0.236
 C          14.312     -11.447       0.265
 C          13.759       2.414      -0.081
 C          13.563     -12.706       0.277
 C          15.893      -3.910       0.056
 C          14.409      -3.887       0.023
 C          12.272       2.412      -0.162
 C          12.114     -12.656       0.479
 C          13.659      -5.145      -0.118
 C          11.539       1.178      -0.098
 C          11.332     -13.913       0.707
 C          12.182      -5.126      -0.198
 C          10.080       1.205      -0.128
 C           9.863     -13.854       0.601
 C          21.000      -2.728       0.160
 C          18.681     -11.497       0.462
 C          20.279      -3.966       0.185
 C          18.185       2.343      -0.080
 C          17.932     -12.735       0.549
 C          18.798      -3.957      -0.109
 C          16.694       2.376      -0.046
 C          16.489     -12.754       0.314
 C          18.081      -5.198      -0.081
 C          15.925       1.121       0.097
 C          15.763     -14.029       0.225
 C          16.604      -5.182      -0.059
 C          14.493       1.139       0.079
 C          14.263     -14.002       0.216
 C          15.852      -6.432       0.054
 C          13.733      -0.087      -0.036
 C          13.515     -15.221       0.522
 C          14.383      -6.411       0.029
 C          12.257      -0.084      -0.073
 C          12.069     -15.145       0.710
 C          20.974      -5.225       0.244
 C          18.881       1.079       0.004
 C          18.682     -14.008       0.783
 C          20.283      -6.487       0.128
 C          18.130      -0.158       0.011
 C          17.914     -15.224       0.758
 C          18.797      -6.477       0.053
 C          16.656      -0.125       0.006
 C          16.468     -15.262       0.558
 C          18.031      -7.713       0.280
 C          15.663     -16.489       0.657
 C          16.553      -7.704       0.257
 C          14.283     -16.474       0.648
 C          20.921      -7.766       0.331
 C          20.211      -9.005       0.403
 C          18.743      -8.985       0.343
 C          20.853     -10.290       0.544
 C          20.128     -11.510       0.518
 C          11.434      -6.387      -0.081
 C          21.034       2.346       0.089
 C          20.843     -12.801       0.617
 C          20.340       1.076       0.047
 C          20.156     -13.990       0.719
 C          21.012      -0.187       0.048
 C           9.951      -6.360      -0.090
 C          10.007      -3.837      -0.027
 C          10.026      -1.324      -0.263
 C           9.324      -2.580      -0.104
 C           9.282      -5.079      -0.009
 C           9.267      -7.619       0.094
 C           9.374      -0.041      -0.158
