   142
 frame    834
 H          22.172       4.851      -0.067
 H          20.938       7.032      -0.099
 H          18.753       8.311      -0.074
 H          14.063       9.635      -0.055
 H          16.571       9.603      -0.037
 H           9.637       7.173      -0.196
 H           8.348       5.026      -0.217
 H          11.850       8.399      -0.126
 H           8.142     -10.125       0.251
 H           8.313       2.496      -0.186
 H           8.113     -12.652       0.384
 H           9.346     -14.828       0.525
 H          11.529     -16.106       0.629
 H          16.217     -17.428       0.736
 H          13.711     -17.396       0.717
 H          20.647     -14.970       0.637
 H          22.082      -2.727       0.249
 H          22.049      -5.248       0.355
 H          22.011      -7.770       0.426
 H          21.972     -10.296       0.489
 H          22.143       2.322       0.013
 H          21.936     -12.823       0.564
 H          18.431     -16.193       0.686
 H          22.114      -0.204       0.122
 H           8.238      -2.554      -0.062
 H           8.203      -5.077       0.031
 H           8.170      -7.600       0.134
 H           8.273      -0.032      -0.137
 C          18.826       3.567       0.051
 C          20.306       3.532      -0.043
 C          21.037       4.827      -0.011
 C          16.698       4.879       0.027
 C          18.152       4.861       0.075
 C          18.907       6.132       0.082
 C          20.381       6.055       0.055
 C          12.354       4.945      -0.002
 C          13.813       4.917      -0.009
 C          14.552       6.154      -0.066
 C          15.991       6.134      -0.048
 C          16.765       7.386      -0.018
 C          18.208       7.364       0.017
 C          11.635       6.227       0.007
 C          12.375       7.432      -0.033
 C          13.816       7.421      -0.031
 C          14.607       8.669      -0.108
 C          16.009       8.650      -0.095
 C           9.475       4.969      -0.145
 C          10.163       6.180      -0.046
 C          13.599      -7.648       1.049
 C          12.150      -7.628       0.812
 C          11.436      -8.868       0.675
 C           9.960      -8.857       0.419
 C          11.495      -1.324       0.376
 C           9.263     -10.123       0.243
 C          15.798      -8.904       1.304
 C          14.316      -8.889       1.274
 C          15.903      -1.361       0.769
 C          13.629     -10.132       0.974
 C          14.430      -1.337       0.739
 C          12.182     -10.119       0.724
 C          13.691      -2.597       0.558
 C          11.650       3.656      -0.036
 C          11.444     -11.361       0.457
 C          12.215      -2.594       0.452
 C          10.175       3.655      -0.184
 C           9.979     -11.336       0.320
 C          11.492      -3.848       0.382
 C           9.442       2.464      -0.176
 C           9.252     -12.625       0.449
 C          20.323      -1.423       0.441
 C          17.916     -10.195       0.826
 C          18.848      -1.415       0.553
 C          16.462     -10.169       1.015
 C          18.091      -2.664       0.583
 C          15.960       3.628       0.210
 C          15.758     -11.442       0.746
 C          16.617      -2.631       0.614
 C          14.512       3.648       0.182
 C          14.311     -11.426       0.727
 C          13.802       2.393       0.513
 C          13.563     -12.676       0.597
 C          15.875      -3.903       0.699
 C          14.384      -3.888       0.673
 C          12.357       2.409       0.279
 C          12.111     -12.655       0.591
 C          13.648      -5.163       0.650
 C          11.582       1.176       0.306
 C          11.368     -13.918       0.682
 C          12.177      -5.124       0.547
 C          10.112       1.184       0.055
 C           9.902     -13.847       0.619
 C          20.990      -2.693       0.473
 C          18.633     -11.451       0.570
 C          20.266      -3.949       0.580
 C          18.089       2.342       0.375
 C          17.926     -12.722       0.677
 C          18.787      -3.940       0.546
 C          16.633       2.363       0.560
 C          16.474     -12.706       0.630
 C          18.054      -5.192       0.690
 C          15.933       1.132       0.933
 C          15.729     -13.939       0.626
 C          16.591      -5.193       0.714
 C          14.441       1.151       0.911
 C          14.285     -13.927       0.603
 C          15.831      -6.423       0.955
 C          13.703      -0.081       0.774
 C          13.517     -15.183       0.675
 C          14.362      -6.411       0.917
 C          12.261      -0.087       0.534
 C          12.078     -15.151       0.691
 C          20.953      -5.233       0.576
 C          18.831       1.091       0.449
 C          18.642     -14.010       0.761
 C          20.250      -6.486       0.648
 C          18.112      -0.151       0.661
 C          17.904     -15.223       0.747
 C          18.783      -6.453       0.745
 C          16.658      -0.110       0.832
 C          16.470     -15.219       0.690
 C          18.014      -7.691       0.940
 C          15.681     -16.462       0.639
 C          16.557      -7.682       1.118
 C          14.274     -16.441       0.636
 C          20.922      -7.758       0.560
 C          20.177      -8.982       0.624
 C          18.694      -8.962       0.828
 C          20.850     -10.269       0.448
 C          20.111     -11.460       0.478
 C          11.411      -6.369       0.585
 C          21.012       2.319       0.010
 C          20.803     -12.759       0.626
 C          20.303       1.062       0.227
 C          20.120     -13.969       0.747
 C          21.024      -0.175       0.265
 C           9.951      -6.355       0.417
 C          10.006      -3.826       0.348
 C          10.030      -1.298       0.236
 C           9.325      -2.547       0.205
 C           9.290      -5.092       0.319
 C           9.258      -7.613       0.325
 C           9.363      -0.032       0.055
