   142
 frame    709
 H          22.172       4.851      -0.067
 H          20.938       7.032      -0.099
 H          18.753       8.311      -0.074
 H          14.063       9.635      -0.055
 H          16.571       9.603      -0.037
 H           9.637       7.173      -0.196
 H           8.348       5.026      -0.217
 H          11.850       8.399      -0.126
 H           8.142     -10.125       0.251
 H           8.313       2.496      -0.186
 H           8.113     -12.652       0.384
 H           9.346     -14.828       0.525
 H          11.529     -16.106       0.629
 H          16.217     -17.428       0.736
 H          13.711     -17.396       0.717
 H          20.647     -14.970       0.637
 H          22.082      -2.727       0.249
 H          22.049      -5.248       0.355
 H          22.011      -7.770       0.426
 H          21.972     -10.296       0.489
 H          22.143       2.322       0.013
 H          21.936     -12.823       0.564
 H          18.431     -16.193       0.686
 H          22.114      -0.204       0.122
 H           8.238      -2.554      -0.062
 H           8.203      -5.077       0.031
 H           8.170      -7.600       0.134
 H           8.273      -0.032      -0.137
 C          18.868       3.621       0.426
 C          20.372       3.592       0.398
 C          21.082       4.883       0.180
 C          16.705       4.874       0.516
 C          18.156       4.848       0.638
 C          18.906       6.112       0.425
 C          20.378       6.070       0.143
 C          12.340       4.923       0.578
 C          13.800       4.913       0.500
 C          14.540       6.175       0.373
 C          16.001       6.159       0.390
 C          16.750       7.422       0.314
 C          18.223       7.365       0.266
 C          11.628       6.196       0.349
 C          12.356       7.441       0.211
 C          13.816       7.459       0.296
 C          14.607       8.712       0.239
 C          16.009       8.696       0.244
 C           9.427       5.027       0.062
 C          10.164       6.193       0.043
 C          13.661      -7.688       0.506
 C          12.192      -7.668       0.474
 C          11.446      -8.913       0.382
 C           9.964      -8.878       0.335
 C          11.560      -1.330       0.149
 C           9.219     -10.177       0.478
 C          15.792      -8.968       0.587
 C          14.357      -8.954       0.556
 C          15.894      -1.374       0.246
 C          13.591     -10.180       0.547
 C          14.450      -1.359       0.215
 C          12.132     -10.199       0.504
 C          13.689      -2.621       0.130
 C          11.596       3.712       0.331
 C          11.396     -11.402       0.852
 C          12.226      -2.597       0.183
 C          10.099       3.728       0.281
 C           9.905     -11.376       0.787
 C          11.481      -3.856       0.115
 C           9.389       2.523       0.046
 C           9.188     -12.668       0.655
 C          20.272      -1.430       0.199
 C          17.978     -10.274       0.600
 C          18.790      -1.410       0.296
 C          16.526     -10.217       0.598
 C          18.080      -2.670       0.308
 C          15.977       3.639       0.267
 C          15.776     -11.446       0.782
 C          16.623      -2.656       0.200
 C          14.500       3.658       0.250
 C          14.306     -11.431       0.759
 C          13.753       2.425       0.090
 C          13.575     -12.644       1.075
 C          15.872      -3.914       0.163
 C          14.406      -3.894       0.124
 C          12.304       2.476       0.050
 C          12.113     -12.618       1.170
 C          13.656      -5.145       0.221
 C          11.579       1.192       0.021
 C          11.362     -13.889       1.006
 C          12.190      -5.123       0.266
 C          10.088       1.200      -0.029
 C           9.880     -13.856       0.703
 C          20.980      -2.688       0.294
 C          18.667     -11.495       0.976
 C          20.269      -3.961       0.396
 C          18.154       2.403       0.128
 C          17.912     -12.697       1.250
 C          18.799      -3.942       0.289
 C          16.703       2.391       0.134
 C          16.459     -12.686       1.106
 C          18.047      -5.195       0.414
 C          15.931       1.164       0.189
 C          15.730     -13.949       0.999
 C          16.594      -5.179       0.301
 C          14.493       1.181       0.161
 C          14.277     -13.927       0.984
 C          15.835      -6.423       0.430
 C          13.775      -0.054       0.208
 C          13.523     -15.197       0.987
 C          14.370      -6.407       0.392
 C          12.288      -0.055       0.201
 C          12.066     -15.144       0.911
 C          20.936      -5.258       0.410
 C          18.845       1.108       0.135
 C          18.642     -13.979       1.085
 C          20.195      -6.503       0.428
 C          18.086      -0.132       0.298
 C          17.919     -15.220       0.968
 C          18.713      -6.475       0.517
 C          16.613      -0.095       0.276
 C          16.454     -15.240       1.000
 C          17.987      -7.737       0.616
 C          15.676     -16.492       0.981
 C          16.518      -7.721       0.581
 C          14.273     -16.473       0.962
 C          20.895      -7.773       0.354
 C          20.188      -9.010       0.528
 C          18.705      -8.999       0.525
 C          20.889     -10.324       0.691
 C          20.168     -11.505       0.968
 C          11.495      -6.387       0.337
 C          21.052       2.376       0.201
 C          20.858     -12.820       0.801
 C          20.322       1.071       0.140
 C          20.128     -13.987       0.818
 C          21.000      -0.183       0.032
 C          10.020      -6.380       0.192
 C          10.010      -3.833       0.166
 C          10.085      -1.304      -0.006
 C           9.343      -2.549       0.037
 C           9.318      -5.120       0.148
 C           9.292      -7.633       0.103
 C           9.385      -0.041      -0.194
