   142
 frame    216
 H          22.172       4.851      -0.067
 H          20.938       7.032      -0.099
 H          18.753       8.311      -0.074
 H          14.063       9.635      -0.055
 H          16.571       9.603      -0.037
 H           9.637       7.173      -0.196
 H           8.348       5.026      -0.217
 H          11.850       8.399      -0.126
 H           8.142     -10.125       0.251
 H           8.313       2.496      -0.186
 H           8.113     -12.652       0.384
 H           9.346     -14.828       0.525
 H          11.529     -16.106       0.629
 H          16.217     -17.428       0.736
 H          13.711     -17.396       0.717
 H          20.647     -14.970       0.637
 H          22.082      -2.727       0.249
 H          22.049      -5.248       0.355
 H          22.011      -7.770       0.426
 H          21.972     -10.296       0.489
 H          22.143       2.322       0.013
 H          21.936     -12.823       0.564
 H          18.431     -16.193       0.686
 H          22.114      -0.204       0.122
 H           8.238      -2.554      -0.062
 H           8.203      -5.077       0.031
 H           8.170      -7.600       0.134
 H           8.273      -0.032      -0.137
 C          18.858       3.605      -0.167
 C          20.340       3.565      -0.105
 C          21.067       4.842      -0.180
 C          16.683       4.876       0.076
 C          18.152       4.861      -0.028
 C          18.902       6.102      -0.144
 C          20.373       6.043      -0.230
 C          12.363       4.933      -0.104
 C          13.828       4.909       0.034
 C          14.548       6.181       0.189
 C          15.996       6.162       0.214
 C          16.750       7.410       0.085
 C          18.193       7.342      -0.105
 C          11.655       6.195      -0.204
 C          12.391       7.419      -0.157
 C          13.827       7.448       0.065
 C          14.607       8.686       0.070
 C          16.000       8.671       0.065
 C           9.458       4.990      -0.294
 C          10.181       6.175      -0.326
 C          13.649      -7.691      -0.309
 C          12.158      -7.651      -0.265
 C          11.423      -8.905      -0.225
 C           9.957      -8.881      -0.049
 C          11.517      -1.351      -0.481
 C           9.247     -10.127       0.223
 C          15.818      -8.971      -0.082
 C          14.339      -8.954      -0.113
 C          15.924      -1.396      -0.699
 C          13.604     -10.216      -0.007
 C          14.461      -1.377      -0.721
 C          12.158     -10.166      -0.054
 C          13.709      -2.625      -0.635
 C          11.633       3.693      -0.260
 C          11.431     -11.410       0.236
 C          12.220      -2.620      -0.463
 C          10.151       3.692      -0.232
 C           9.946     -11.368       0.276
 C          11.472      -3.867      -0.402
 C           9.428       2.462      -0.214
 C           9.226     -12.654       0.285
 C          20.325      -1.443      -0.154
 C          17.974     -10.236       0.057
 C          18.847      -1.437      -0.319
 C          16.525     -10.249       0.048
 C          18.108      -2.691      -0.329
 C          15.961       3.640      -0.177
 C          15.762     -11.474       0.326
 C          16.639      -2.665      -0.587
 C          14.524       3.660      -0.194
 C          14.321     -11.460       0.297
 C          13.767       2.425      -0.433
 C          13.586     -12.669       0.612
 C          15.889      -3.928      -0.580
 C          14.422      -3.911      -0.605
 C          12.321       2.413      -0.470
 C          12.129     -12.653       0.467
 C          13.672      -5.177      -0.555
 C          11.558       1.158      -0.571
 C          11.391     -13.907       0.421
 C          12.185      -5.137      -0.382
 C          10.093       1.175      -0.394
 C           9.919     -13.856       0.314
 C          20.998      -2.717      -0.049
 C          18.659     -11.499       0.342
 C          20.276      -3.966      -0.032
 C          18.144       2.345      -0.397
 C          17.921     -12.727       0.541
 C          18.827      -3.955      -0.222
 C          16.704       2.390      -0.383
 C          16.456     -12.705       0.641
 C          18.081      -5.210      -0.251
 C          15.961       1.124      -0.414
 C          15.722     -13.962       0.853
 C          16.601      -5.209      -0.486
 C          14.471       1.148      -0.439
 C          14.285     -13.941       0.847
 C          15.855      -6.461      -0.527
 C          13.747      -0.104      -0.550
 C          13.538     -15.194       0.758
 C          14.392      -6.447      -0.556
 C          12.260      -0.104      -0.526
 C          12.100     -15.143       0.530
 C          20.956      -5.244       0.049
 C          18.878       1.064      -0.449
 C          18.634     -13.991       0.521
 C          20.256      -6.505       0.042
 C          18.147      -0.172      -0.418
 C          17.887     -15.209       0.588
 C          18.781      -6.475      -0.137
 C          16.660      -0.142      -0.491
 C          16.443     -15.228       0.781
 C          18.040      -7.729      -0.146
 C          15.671     -16.479       0.820
 C          16.556      -7.722      -0.235
 C          14.277     -16.456       0.803
 C          20.941      -7.785       0.109
 C          20.206      -9.014       0.144
 C          18.742      -8.992      -0.090
 C          20.871     -10.278       0.428
 C          20.142     -11.495       0.435
 C          11.447      -6.387      -0.303
 C          21.033       2.322      -0.040
 C          20.830     -12.792       0.438
 C          20.342       1.055      -0.235
 C          20.104     -13.977       0.440
 C          21.048      -0.189      -0.188
 C           9.978      -6.377      -0.188
 C          10.026      -3.838      -0.261
 C          10.047      -1.321      -0.361
 C           9.337      -2.572      -0.302
 C           9.311      -5.100      -0.215
 C           9.256      -7.636      -0.134
 C           9.354      -0.049      -0.398
