   142
 frame      6
 H          22.172       4.851      -0.067
 H          20.938       7.032      -0.099
 H          18.753       8.311      -0.074
 H          14.063       9.635      -0.055
 H          16.571       9.603      -0.037
 H           9.637       7.173      -0.196
 H           8.348       5.026      -0.217
 H          11.850       8.399      -0.126
 H           8.142     -10.125       0.251
 H           8.313       2.496      -0.186
 H           8.113     -12.652       0.384
 H           9.346     -14.828       0.525
 H          11.529     -16.106       0.629
 H          16.217     -17.428       0.736
 H          13.711     -17.396       0.717
 H          20.647     -14.970       0.637
 H          22.082      -2.727       0.249
 H          22.049      -5.248       0.355
 H          22.011      -7.770       0.426
 H          21.972     -10.296       0.489
 H          22.143       2.322       0.013
 H          21.936     -12.823       0.564
 H          18.431     -16.193       0.686
 H          22.114      -0.204       0.122
 H           8.238      -2.554      -0.062
 H           8.203      -5.077       0.031
 H           8.170      -7.600       0.134
 H           8.273      -0.032      -0.137
 C          18.881       3.598      -0.034
 C          20.355       3.576      -0.030
 C          21.065       4.869      -0.062
 C          16.715       4.878      -0.062
 C          18.170       4.860      -0.057
 C          18.910       6.129      -0.071
 C          20.383       6.074      -0.079
 C          12.347       4.934      -0.121
 C          13.802       4.915      -0.094
 C          14.545       6.164      -0.085
 C          16.003       6.145      -0.071
 C          16.751       7.398      -0.065
 C          18.192       7.357      -0.070
 C          11.640       6.220      -0.140
 C          12.387       7.431      -0.118
 C          13.829       7.436      -0.089
 C          14.607       8.672      -0.065
 C          16.003       8.654      -0.054
 C           9.454       5.014      -0.189
 C          10.166       6.202      -0.177
 C          13.632      -7.649       0.288
 C          12.170      -7.634       0.264
 C          11.431      -8.883       0.292
 C           9.958      -8.868       0.246
 C          11.537      -1.342      -0.013
 C           9.249     -10.137       0.284
 C          15.804      -8.930       0.389
 C          14.344      -8.912       0.360
 C          15.909      -1.420       0.136
 C          13.602     -10.162       0.398
 C          14.442      -1.407       0.117
 C          12.140     -10.146       0.362
 C          13.700      -2.620       0.427
 C          11.604       3.690      -0.126
 C          11.402     -11.398       0.400
 C          12.264      -2.618       0.106
 C          10.132       3.704      -0.159
 C           9.930     -11.376       0.362
 C          11.500      -3.856       0.091
 C           9.419       2.480      -0.159
 C           9.219     -12.669       0.410
 C          20.296      -1.448       0.159
 C          17.974     -10.218       0.463
 C          18.817      -1.430       0.136
 C          16.513     -10.199       0.447
 C          18.063      -2.686       0.222
 C          15.971       3.626      -0.053
 C          15.770     -11.442       0.482
 C          16.607      -2.664       0.422
 C          14.513       3.644      -0.071
 C          14.311     -11.424       0.460
 C          13.771       2.399      -0.063
 C          13.568     -12.675       0.500
 C          15.908      -3.894       0.912
 C          14.371      -3.880       0.886
 C          12.309       2.419      -0.092
 C          12.113     -12.658       0.474
 C          13.660      -5.136       0.531
 C          11.568       1.174      -0.081
 C          11.374     -13.926       0.520
 C          12.226      -5.113       0.205
 C          10.095       1.193      -0.118
 C           9.900     -13.871       0.487
 C          20.976      -2.712       0.232
 C          18.679     -11.488       0.509
 C          20.264      -3.963       0.272
 C          18.144       2.346      -0.007
 C          17.936     -12.731       0.548
 C          18.787      -3.946       0.258
 C          16.681       2.363      -0.020
 C          16.480     -12.712       0.537
 C          18.027      -5.184       0.336
 C          15.939       1.113       0.001
 C          15.736     -13.960       0.581
 C          16.583      -5.176       0.597
 C          14.480       1.130      -0.025
 C          14.279     -13.941       0.565
 C          15.841      -6.401       0.351
 C          13.735      -0.118      -0.006
 C          13.531     -15.194       0.613
 C          14.377      -6.383       0.317
 C          12.272      -0.094      -0.026
 C          12.090     -15.152       0.591
 C          20.942      -5.232       0.339
 C          18.853       1.083       0.041
 C          18.642     -14.017       0.600
 C          20.227      -6.479       0.367
 C          18.114      -0.167       0.083
 C          17.895     -15.226       0.645
 C          18.750      -6.459       0.344
 C          16.652      -0.154       0.047
 C          16.452     -15.230       0.639
 C          18.012      -7.705       0.387
 C          15.673     -16.465       0.689
 C          16.549      -7.684       0.350
 C          14.279     -16.447       0.678
 C          20.904      -7.755       0.416
 C          20.190      -8.994       0.444
 C          18.716      -8.973       0.432
 C          20.866     -10.281       0.484
 C          20.151     -11.503       0.517
 C          11.467      -6.370       0.182
 C          21.036       2.335       0.009
 C          20.830     -12.813       0.562
 C          20.325       1.066       0.052
 C          20.117     -14.000       0.602
 C          21.008      -0.190       0.111
 C           9.989      -6.354       0.137
 C          10.021      -3.838       0.035
 C          10.058      -1.322      -0.053
 C           9.343      -2.569      -0.027
 C           9.309      -5.090       0.068
 C           9.277      -7.611       0.170
 C           9.380      -0.046      -0.107
