   142
 frame      3
 H          22.172       4.851      -0.067
 H          20.938       7.032      -0.099
 H          18.753       8.311      -0.074
 H          14.063       9.635      -0.055
 H          16.571       9.603      -0.037
 H           9.637       7.173      -0.196
 H           8.348       5.026      -0.217
 H          11.850       8.399      -0.126
 H           8.142     -10.125       0.251
 H           8.313       2.496      -0.186
 H           8.113     -12.652       0.384
 H           9.346     -14.828       0.525
 H          11.529     -16.106       0.629
 H          16.217     -17.428       0.736
 H          13.711     -17.396       0.717
 H          20.647     -14.970       0.637
 H          22.082      -2.727       0.249
 H          22.049      -5.248       0.355
 H          22.011      -7.770       0.426
 H          21.972     -10.296       0.489
 H          22.143       2.322       0.013
 H          21.936     -12.823       0.564
 H          18.431     -16.193       0.686
 H          22.114      -0.204       0.122
 H           8.238      -2.554      -0.062
 H           8.203      -5.077       0.031
 H           8.170      -7.600       0.134
 H           8.273      -0.032      -0.137
 C          18.882       3.598      -0.034
 C          20.354       3.576      -0.030
 C          21.065       4.870      -0.062
 C          16.715       4.878      -0.062
 C          18.171       4.860      -0.057
 C          18.910       6.129      -0.071
 C          20.383       6.073      -0.080
 C          12.347       4.934      -0.121
 C          13.802       4.915      -0.094
 C          14.545       6.164      -0.085
 C          16.003       6.145      -0.071
 C          16.751       7.398      -0.065
 C          18.192       7.357      -0.070
 C          11.640       6.220      -0.140
 C          12.387       7.431      -0.118
 C          13.828       7.435      -0.089
 C          14.608       8.671      -0.065
 C          16.002       8.654      -0.054
 C           9.454       5.015      -0.189
 C          10.166       6.201      -0.177
 C          13.633      -7.650       0.296
 C          12.170      -7.633       0.262
 C          11.431      -8.883       0.291
 C           9.958      -8.867       0.246
 C          11.534      -1.340      -0.009
 C           9.248     -10.136       0.283
 C          15.804      -8.931       0.392
 C          14.344      -8.912       0.363
 C          15.908      -1.407       0.111
 C          13.602     -10.162       0.397
 C          14.444      -1.391       0.085
 C          12.140     -10.145       0.362
 C          13.701      -2.623       0.507
 C          11.605       3.690      -0.126
 C          11.402     -11.397       0.400
 C          12.249      -2.613       0.077
 C          10.132       3.704      -0.160
 C           9.930     -11.376       0.362
 C          11.498      -3.856       0.089
 C           9.419       2.480      -0.159
 C           9.220     -12.668       0.410
 C          20.296      -1.447       0.161
 C          17.974     -10.218       0.463
 C          18.819      -1.430       0.140
 C          16.513     -10.199       0.447
 C          18.073      -2.682       0.201
 C          15.972       3.626      -0.053
 C          15.770     -11.443       0.482
 C          16.613      -2.662       0.482
 C          14.513       3.644      -0.072
 C          14.312     -11.424       0.460
 C          13.771       2.400      -0.063
 C          13.567     -12.676       0.500
 C          15.888      -3.903       1.055
 C          14.394      -3.887       1.024
 C          12.309       2.419      -0.092
 C          12.113     -12.657       0.474
 C          13.664      -5.138       0.610
 C          11.568       1.173      -0.081
 C          11.374     -13.925       0.520
 C          12.213      -5.117       0.177
 C          10.094       1.193      -0.118
 C           9.900     -13.870       0.487
 C          20.976      -2.712       0.232
 C          18.679     -11.489       0.509
 C          20.264      -3.963       0.276
 C          18.144       2.346      -0.007
 C          17.936     -12.732       0.548
 C          18.787      -3.945       0.256
 C          16.681       2.363      -0.021
 C          16.480     -12.713       0.537
 C          18.038      -5.188       0.310
 C          15.939       1.113       0.003
 C          15.736     -13.960       0.581
 C          16.582      -5.175       0.677
 C          14.480       1.131      -0.022
 C          14.279     -13.941       0.566
 C          15.840      -6.412       0.320
 C          13.736      -0.115       0.000
 C          13.531     -15.193       0.613
 C          14.376      -6.394       0.287
 C          12.272      -0.095      -0.028
 C          12.090     -15.153       0.592
 C          20.942      -5.232       0.339
 C          18.852       1.083       0.040
 C          18.643     -14.017       0.600
 C          20.227      -6.479       0.370
 C          18.114      -0.167       0.081
 C          17.894     -15.226       0.645
 C          18.751      -6.459       0.349
 C          16.651      -0.152       0.055
 C          16.453     -15.230       0.639
 C          18.011      -7.704       0.385
 C          15.673     -16.465       0.689
 C          16.548      -7.685       0.358
 C          14.279     -16.447       0.678
 C          20.905      -7.754       0.416
 C          20.190      -8.993       0.444
 C          18.716      -8.973       0.432
 C          20.865     -10.281       0.484
 C          20.152     -11.503       0.517
 C          11.465      -6.370       0.186
 C          21.036       2.335       0.009
 C          20.829     -12.814       0.562
 C          20.326       1.067       0.052
 C          20.117     -13.999       0.602
 C          21.007      -0.190       0.111
 C           9.988      -6.354       0.139
 C          10.021      -3.838       0.039
 C          10.057      -1.322      -0.051
 C           9.344      -2.569      -0.027
 C           9.309      -5.089       0.068
 C           9.277      -7.611       0.170
 C           9.380      -0.047      -0.107
