   142
 frame     29
 H          22.172       4.851      -0.067
 H          20.938       7.032      -0.099
 H          18.753       8.311      -0.074
 H          14.063       9.635      -0.055
 H          16.571       9.603      -0.037
 H           9.637       7.173      -0.196
 H           8.348       5.026      -0.217
 H          11.850       8.399      -0.126
 H           8.142     -10.125       0.251
 H           8.313       2.496      -0.186
 H           8.113     -12.652       0.384
 H           9.346     -14.828       0.525
 H          11.529     -16.106       0.629
 H          16.217     -17.428       0.736
 H          13.711     -17.396       0.717
 H          20.647     -14.970       0.637
 H          22.082      -2.727       0.249
 H          22.049      -5.248       0.355
 H          22.011      -7.770       0.426
 H          21.972     -10.296       0.489
 H          22.143       2.322       0.013
 H          21.936     -12.823       0.564
 H          18.431     -16.193       0.686
 H          22.114      -0.204       0.122
 H           8.238      -2.554      -0.062
 H           8.203      -5.077       0.031
 H           8.170      -7.600       0.134
 H           8.273      -0.032      -0.137
 C          18.880       3.597      -0.031
 C          20.353       3.576      -0.030
 C          21.065       4.870      -0.061
 C          16.714       4.874      -0.059
 C          18.170       4.860      -0.057
 C          18.910       6.129      -0.071
 C          20.383       6.075      -0.079
 C          12.347       4.934      -0.120
 C          13.802       4.909      -0.091
 C          14.545       6.161      -0.084
 C          16.002       6.144      -0.071
 C          16.751       7.398      -0.066
 C          18.192       7.358      -0.071
 C          11.641       6.221      -0.140
 C          12.388       7.432      -0.118
 C          13.829       7.436      -0.090
 C          14.608       8.672      -0.066
 C          16.002       8.654      -0.056
 C           9.455       5.015      -0.188
 C          10.167       6.202      -0.177
 C          13.638      -7.634       0.370
 C          12.187      -7.624       0.232
 C          11.443      -8.871       0.275
 C           9.963      -8.863       0.248
 C          11.520      -1.331       0.048
 C           9.250     -10.135       0.287
 C          15.804      -8.915       0.358
 C          14.349      -8.895       0.329
 C          15.914      -1.391       0.282
 C          13.607     -10.149       0.376
 C          14.430      -1.381       0.245
 C          12.142     -10.141       0.363
 C          13.697      -2.598      -0.006
 C          11.605       3.687      -0.123
 C          11.403     -11.398       0.403
 C          12.235      -2.609       0.168
 C          10.133       3.704      -0.159
 C           9.930     -11.376       0.363
 C          11.469      -3.852       0.230
 C           9.421       2.478      -0.157
 C           9.220     -12.669       0.410
 C          20.291      -1.454       0.144
 C          17.973     -10.213       0.464
 C          18.823      -1.430       0.176
 C          16.510     -10.185       0.425
 C          18.075      -2.684       0.278
 C          15.972       3.613      -0.052
 C          15.771     -11.434       0.482
 C          16.602      -2.655       0.091
 C          14.512       3.630      -0.072
 C          14.312     -11.416       0.460
 C          13.777       2.378      -0.082
 C          13.569     -12.672       0.503
 C          15.924      -3.923      -0.391
 C          14.375      -3.911      -0.433
 C          12.312       2.408      -0.091
 C          12.113     -12.658       0.474
 C          13.676      -5.149       0.098
 C          11.581       1.153      -0.095
 C          11.374     -13.926       0.519
 C          12.215      -5.107       0.264
 C          10.101       1.185      -0.116
 C           9.901     -13.872       0.487
 C          20.969      -2.718       0.207
 C          18.679     -11.488       0.513
 C          20.258      -3.967       0.273
 C          18.140       2.337      -0.004
 C          17.936     -12.731       0.549
 C          18.802      -3.945       0.373
 C          16.675       2.343      -0.037
 C          16.481     -12.709       0.540
 C          18.023      -5.171       0.386
 C          15.935       1.093      -0.027
 C          15.737     -13.959       0.581
 C          16.560      -5.179       0.147
 C          14.486       1.114      -0.048
 C          14.280     -13.941       0.566
 C          15.840      -6.381       0.487
 C          13.735      -0.107       0.079
 C          13.531     -15.193       0.613
 C          14.369      -6.365       0.459
 C          12.288      -0.113      -0.050
 C          12.090     -15.153       0.591
 C          20.935      -5.232       0.313
 C          18.841       1.065       0.028
 C          18.643     -14.017       0.599
 C          20.223      -6.479       0.352
 C          18.101      -0.188       0.049
 C          17.895     -15.226       0.645
 C          18.752      -6.459       0.402
 C          16.649      -0.151       0.114
 C          16.454     -15.230       0.639
 C          18.002      -7.697       0.354
 C          15.673     -16.465       0.689
 C          16.542      -7.669       0.432
 C          14.279     -16.447       0.678
 C          20.902      -7.752       0.401
 C          20.187      -8.990       0.446
 C          18.709      -8.964       0.415
 C          20.865     -10.280       0.488
 C          20.152     -11.503       0.518
 C          11.459      -6.372       0.241
 C          21.035       2.332       0.012
 C          20.829     -12.813       0.562
 C          20.319       1.060       0.055
 C          20.117     -13.999       0.602
 C          21.002      -0.199       0.101
 C           9.995      -6.353       0.124
 C          10.031      -3.840       0.039
 C          10.062      -1.326      -0.066
 C           9.357      -2.574      -0.054
 C           9.321      -5.087       0.041
 C           9.282      -7.606       0.156
 C           9.386      -0.055      -0.120
