   142
 frame    491
 H          22.172       4.851      -0.067
 H          20.938       7.032      -0.099
 H          18.753       8.311      -0.074
 H          14.063       9.635      -0.055
 H          16.571       9.603      -0.037
 H           9.637       7.173      -0.196
 H           8.348       5.026      -0.217
 H          11.850       8.399      -0.126
 H           8.142     -10.125       0.251
 H           8.313       2.496      -0.186
 H           8.113     -12.652       0.384
 H           9.346     -14.828       0.525
 H          11.529     -16.106       0.629
 H          16.217     -17.428       0.736
 H          13.711     -17.396       0.717
 H          20.647     -14.970       0.637
 H          22.082      -2.727       0.249
 H          22.049      -5.248       0.355
 H          22.011      -7.770       0.426
 H          21.972     -10.296       0.489
 H          22.143       2.322       0.013
 H          21.936     -12.823       0.564
 H          18.431     -16.193       0.686
 H          22.114      -0.204       0.122
 H           8.238      -2.554      -0.062
 H           8.203      -5.077       0.031
 H           8.170      -7.600       0.134
 H           8.273      -0.032      -0.137
 C          18.881       3.563      -0.340
 C          20.366       3.558      -0.100
 C          21.060       4.867      -0.107
 C          16.728       4.889      -0.251
 C          18.183       4.843      -0.289
 C          18.895       6.121      -0.263
 C          20.356       6.072      -0.225
 C          12.336       4.913      -0.353
 C          13.798       4.929      -0.282
 C          14.534       6.174      -0.243
 C          16.018       6.159      -0.237
 C          16.760       7.419      -0.244
 C          18.186       7.364      -0.193
 C          11.661       6.210      -0.333
 C          12.398       7.429      -0.250
 C          13.821       7.454      -0.279
 C          14.605       8.662      -0.153
 C          16.004       8.648      -0.152
 C           9.455       5.026      -0.222
 C          10.197       6.206      -0.305
 C          13.601      -7.661      -0.231
 C          12.149      -7.656       0.040
 C          11.434      -8.916       0.091
 C           9.946      -8.872       0.160
 C          11.518      -1.326      -0.070
 C           9.230     -10.118       0.296
 C          15.824      -8.957      -0.340
 C          14.339      -8.934      -0.360
 C          15.931      -1.432      -0.380
 C          13.616     -10.221      -0.214
 C          14.436      -1.419      -0.414
 C          12.148     -10.161      -0.125
 C          13.705      -2.627       0.004
 C          11.607       3.656      -0.441
 C          11.399     -11.386       0.055
 C          12.205      -2.610      -0.070
 C          10.124       3.685      -0.233
 C           9.922     -11.361       0.298
 C          11.441      -3.856       0.077
 C           9.402       2.462      -0.160
 C           9.222     -12.675       0.378
 C          20.327      -1.450       0.070
 C          17.978     -10.229      -0.034
 C          18.837      -1.428       0.060
 C          16.517     -10.249      -0.155
 C          18.112      -2.677       0.051
 C          15.978       3.636      -0.385
 C          15.780     -11.480       0.094
 C          16.611      -2.661       0.064
 C          14.512       3.656      -0.398
 C          14.313     -11.455       0.072
 C          13.777       2.414      -0.619
 C          13.563     -12.704       0.266
 C          15.877      -3.918       0.250
 C          14.408      -3.898       0.216
 C          12.325       2.397      -0.537
 C          12.105     -12.650       0.213
 C          13.667      -5.155       0.078
 C          11.577       1.186      -0.241
 C          11.389     -13.922       0.305
 C          12.171      -5.129       0.015
 C          10.088       1.199      -0.174
 C           9.927     -13.880       0.348
 C          20.998      -2.706       0.237
 C          18.694     -11.475       0.161
 C          20.299      -3.960       0.317
 C          18.135       2.321      -0.436
 C          17.955     -12.727       0.278
 C          18.844      -3.946       0.208
 C          16.683       2.374      -0.567
 C          16.500     -12.736       0.293
 C          18.086      -5.196       0.118
 C          15.959       1.090      -0.655
 C          15.753     -13.975       0.362
 C          16.578      -5.189       0.126
 C          14.473       1.107      -0.695
 C          14.275     -13.958       0.343
 C          15.866      -6.426      -0.260
 C          13.711      -0.143      -0.463
 C          13.532     -15.214       0.410
 C          14.365      -6.400      -0.293
 C          12.261      -0.088      -0.199
 C          12.103     -15.152       0.445
 C          20.956      -5.236       0.324
 C          18.848       1.086      -0.131
 C          18.637     -14.012       0.384
 C          20.260      -6.482       0.238
 C          18.132      -0.167      -0.095
 C          17.895     -15.224       0.503
 C          18.777      -6.482       0.235
 C          16.686      -0.180      -0.399
 C          16.455     -15.254       0.431
 C          18.037      -7.728       0.157
 C          15.672     -16.464       0.605
 C          16.591      -7.699      -0.174
 C          14.276     -16.445       0.588
 C          20.932      -7.772       0.260
 C          20.205      -8.994       0.348
 C          18.716      -8.995       0.205
 C          20.882     -10.263       0.483
 C          20.169     -11.483       0.438
 C          11.443      -6.389       0.083
 C          21.045       2.313       0.025
 C          20.827     -12.821       0.520
 C          20.332       1.066      -0.012
 C          20.088     -14.007       0.460
 C          21.028      -0.184      -0.030
 C           9.965      -6.356       0.011
 C           9.990      -3.835       0.092
 C          10.030      -1.321      -0.152
 C           9.327      -2.563      -0.025
 C           9.295      -5.092       0.061
 C           9.257      -7.631       0.010
 C           9.359      -0.026      -0.248
