   142
 frame    111
 H          22.172       4.851      -0.067
 H          20.938       7.032      -0.099
 H          18.753       8.311      -0.074
 H          14.063       9.635      -0.055
 H          16.571       9.603      -0.037
 H           9.637       7.173      -0.196
 H           8.348       5.026      -0.217
 H          11.850       8.399      -0.126
 H           8.142     -10.125       0.251
 H           8.313       2.496      -0.186
 H           8.113     -12.652       0.384
 H           9.346     -14.828       0.525
 H          11.529     -16.106       0.629
 H          16.217     -17.428       0.736
 H          13.711     -17.396       0.717
 H          20.647     -14.970       0.637
 H          22.082      -2.727       0.249
 H          22.049      -5.248       0.355
 H          22.011      -7.770       0.426
 H          21.972     -10.296       0.489
 H          22.143       2.322       0.013
 H          21.936     -12.823       0.564
 H          18.431     -16.193       0.686
 H          22.114      -0.204       0.122
 H           8.238      -2.554      -0.062
 H           8.203      -5.077       0.031
 H           8.170      -7.600       0.134
 H           8.273      -0.032      -0.137
 C          18.891       3.591       0.126
 C          20.367       3.573      -0.000
 C          21.070       4.875      -0.170
 C          16.712       4.868       0.027
 C          18.186       4.857      -0.039
 C          18.931       6.135      -0.160
 C          20.399       6.085      -0.156
 C          12.333       4.925      -0.100
 C          13.805       4.896      -0.009
 C          14.537       6.168      -0.117
 C          16.005       6.154      -0.102
 C          16.765       7.414      -0.115
 C          18.209       7.360      -0.117
 C          11.614       6.224      -0.228
 C          12.363       7.431      -0.170
 C          13.809       7.450      -0.138
 C          14.603       8.678      -0.076
 C          16.002       8.661      -0.067
 C           9.453       5.019      -0.295
 C          10.150       6.213      -0.266
 C          13.636      -7.680      -0.127
 C          12.168      -7.678      -0.064
 C          11.433      -8.880       0.280
 C           9.961      -8.846       0.381
 C          11.545      -1.335      -0.328
 C           9.253     -10.128       0.431
 C          15.818      -8.967       0.064
 C          14.343      -8.942       0.040
 C          15.906      -1.409      -0.345
 C          13.601     -10.138       0.434
 C          14.457      -1.391      -0.364
 C          12.150     -10.118       0.497
 C          13.715      -2.646      -0.527
 C          11.597       3.673       0.027
 C          11.397     -11.378       0.559
 C          12.229      -2.600      -0.364
 C          10.121       3.702      -0.115
 C           9.917     -11.379       0.406
 C          11.494      -3.870      -0.235
 C           9.417       2.469      -0.012
 C           9.211     -12.683       0.298
 C          20.309      -1.460      -0.042
 C          17.965     -10.194       0.591
 C          18.832      -1.424      -0.202
 C          16.516     -10.176       0.484
 C          18.115      -2.672      -0.251
 C          15.974       3.595       0.145
 C          15.774     -11.422       0.679
 C          16.622      -2.683      -0.449
 C          14.512       3.614       0.129
 C          14.310     -11.400       0.655
 C          13.767       2.361      -0.009
 C          13.568     -12.664       0.594
 C          15.907      -3.928      -0.548
 C          14.408      -3.911      -0.580
 C          12.309       2.391       0.051
 C          12.104     -12.652       0.497
 C          13.683      -5.160      -0.417
 C          11.566       1.169      -0.078
 C          11.355     -13.934       0.424
 C          12.197      -5.157      -0.268
 C          10.090       1.171       0.023
 C           9.889     -13.884       0.395
 C          20.988      -2.720       0.001
 C          18.680     -11.476       0.669
 C          20.272      -3.979      -0.096
 C          18.143       2.322       0.149
 C          17.946     -12.729       0.578
 C          18.819      -3.955      -0.088
 C          16.689       2.327       0.029
 C          16.481     -12.703       0.632
 C          18.074      -5.235      -0.156
 C          15.955       1.121      -0.290
 C          15.735     -13.962       0.551
 C          16.593      -5.198      -0.364
 C          14.480       1.136      -0.328
 C          14.275     -13.945       0.535
 C          15.834      -6.432      -0.143
 C          13.729      -0.112      -0.397
 C          13.518     -15.203       0.562
 C          14.393      -6.414      -0.184
 C          12.271      -0.071      -0.338
 C          12.074     -15.156       0.537
 C          20.958      -5.252       0.097
 C          18.861       1.084       0.038
 C          18.658     -14.027       0.509
 C          20.246      -6.490       0.152
 C          18.133      -0.136      -0.243
 C          17.904     -15.232       0.594
 C          18.765      -6.490      -0.007
 C          16.679      -0.147      -0.347
 C          16.461     -15.238       0.591
 C          18.030      -7.748       0.063
 C          15.673     -16.468       0.679
 C          16.563      -7.718      -0.071
 C          14.275     -16.449       0.666
 C          20.917      -7.754       0.497
 C          20.188      -8.979       0.560
 C          18.716      -8.972       0.420
 C          20.865     -10.275       0.628
 C          20.166     -11.507       0.567
 C          11.471      -6.400      -0.156
 C          21.040       2.330       0.150
 C          20.839     -12.824       0.456
 C          20.332       1.049       0.200
 C          20.125     -14.009       0.512
 C          21.025      -0.195       0.204
 C           9.985      -6.368      -0.079
 C          10.036      -3.856      -0.333
 C          10.056      -1.334      -0.262
 C           9.337      -2.573      -0.274
 C           9.300      -5.106      -0.175
 C           9.258      -7.607       0.262
 C           9.363      -0.057      -0.021
