   142
 frame    402
 H          22.172       4.851      -0.067
 H          20.938       7.032      -0.099
 H          18.753       8.311      -0.074
 H          14.063       9.635      -0.055
 H          16.571       9.603      -0.037
 H           9.637       7.173      -0.196
 H           8.348       5.026      -0.217
 H          11.850       8.399      -0.126
 H           8.142     -10.125       0.251
 H           8.313       2.496      -0.186
 H           8.113     -12.652       0.384
 H           9.346     -14.828       0.525
 H          11.529     -16.106       0.629
 H          16.217     -17.428       0.736
 H          13.711     -17.396       0.717
 H          20.647     -14.970       0.637
 H          22.082      -2.727       0.249
 H          22.049      -5.248       0.355
 H          22.011      -7.770       0.426
 H          21.972     -10.296       0.489
 H          22.143       2.322       0.013
 H          21.936     -12.823       0.564
 H          18.431     -16.193       0.686
 H          22.114      -0.204       0.122
 H           8.238      -2.554      -0.062
 H           8.203      -5.077       0.031
 H           8.170      -7.600       0.134
 H           8.273      -0.032      -0.137
 C          18.927       3.586      -0.619
 C          20.382       3.585      -0.384
 C          21.084       4.874      -0.211
 C          16.736       4.877      -0.601
 C          18.202       4.858      -0.679
 C          18.952       6.151      -0.475
 C          20.416       6.073      -0.218
 C          12.329       4.941      -0.751
 C          13.790       4.922      -0.626
 C          14.541       6.161      -0.431
 C          16.012       6.139      -0.438
 C          16.749       7.407      -0.374
 C          18.229       7.369      -0.357
 C          11.606       6.248      -0.544
 C          12.360       7.444      -0.408
 C          13.837       7.446      -0.404
 C          14.604       8.686      -0.249
 C          16.005       8.664      -0.238
 C           9.437       5.019      -0.351
 C          10.136       6.199      -0.324
 C          13.634      -7.662      -0.121
 C          12.149      -7.665      -0.094
 C          11.414      -8.934      -0.144
 C           9.937      -8.897      -0.075
 C          11.536      -1.335      -0.281
 C           9.233     -10.169       0.100
 C          15.818      -8.922      -0.292
 C          14.354      -8.909      -0.320
 C          15.916      -1.426      -0.230
 C          13.609     -10.162      -0.252
 C          14.454      -1.408      -0.267
 C          12.139     -10.176      -0.260
 C          13.720      -2.664      -0.161
 C          11.575       3.686      -0.725
 C          11.370     -11.420      -0.253
 C          12.258      -2.609      -0.264
 C          10.109       3.713      -0.525
 C           9.903     -11.400      -0.041
 C          11.524      -3.861      -0.171
 C           9.414       2.509      -0.340
 C           9.202     -12.684       0.228
 C          20.299      -1.470      -0.118
 C          17.996     -10.244      -0.159
 C          18.833      -1.429      -0.129
 C          16.527     -10.195      -0.207
 C          18.075      -2.674      -0.127
 C          15.980       3.602      -0.580
 C          15.786     -11.456      -0.128
 C          16.605      -2.697      -0.095
 C          14.504       3.624      -0.602
 C          14.312     -11.440      -0.140
 C          13.771       2.358      -0.622
 C          13.564     -12.709      -0.098
 C          15.868      -3.912      -0.136
 C          14.430      -3.900      -0.176
 C          12.304       2.425      -0.641
 C          12.090     -12.693      -0.215
 C          13.688      -5.124      -0.074
 C          11.562       1.201      -0.442
 C          11.337     -13.968       0.062
 C          12.218      -5.144      -0.164
 C          10.089       1.202      -0.404
 C           9.877     -13.882       0.329
 C          20.976      -2.710       0.096
 C          18.733     -11.509      -0.144
 C          20.229      -3.959       0.184
 C          18.163       2.343      -0.552
 C          17.978     -12.759      -0.145
 C          18.768      -3.952      -0.013
 C          16.699       2.326      -0.587
 C          16.497     -12.740      -0.051
 C          18.042      -5.219      -0.038
 C          15.949       1.073      -0.597
 C          15.745     -13.974       0.175
 C          16.576      -5.159      -0.022
 C          14.488       1.092      -0.625
 C          14.278     -13.957       0.146
 C          15.854      -6.418      -0.080
 C          13.742      -0.126      -0.356
 C          13.537     -15.216       0.281
 C          14.379      -6.400      -0.112
 C          12.260      -0.081      -0.336
 C          12.070     -15.175       0.287
 C          20.940      -5.235       0.194
 C          18.870       1.104      -0.332
 C          18.690     -14.053       0.146
 C          20.234      -6.471       0.067
 C          18.146      -0.156      -0.218
 C          17.928     -15.247       0.334
 C          18.761      -6.478       0.060
 C          16.659      -0.166      -0.300
 C          16.457     -15.249       0.306
 C          18.044      -7.728       0.037
 C          15.682     -16.481       0.495
 C          16.566      -7.701      -0.064
 C          14.280     -16.466       0.485
 C          20.918      -7.755       0.131
 C          20.219      -9.030       0.127
 C          18.750      -9.021       0.000
 C          20.889     -10.316       0.280
 C          20.189     -11.521       0.112
 C          11.465      -6.389      -0.086
 C          21.046       2.364      -0.164
 C          20.847     -12.823       0.394
 C          20.347       1.077      -0.229
 C          20.143     -14.001       0.449
 C          21.018      -0.208      -0.148
 C          10.001      -6.346      -0.167
 C          10.057      -3.836      -0.061
 C          10.070      -1.344      -0.351
 C           9.358      -2.565      -0.178
 C           9.322      -5.093      -0.085
 C           9.280      -7.612      -0.118
 C           9.384      -0.061      -0.367
