   142
 frame    387
 H          22.172       4.851      -0.067
 H          20.938       7.032      -0.099
 H          18.753       8.311      -0.074
 H          14.063       9.635      -0.055
 H          16.571       9.603      -0.037
 H           9.637       7.173      -0.196
 H           8.348       5.026      -0.217
 H          11.850       8.399      -0.126
 H           8.142     -10.125       0.251
 H           8.313       2.496      -0.186
 H           8.113     -12.652       0.384
 H           9.346     -14.828       0.525
 H          11.529     -16.106       0.629
 H          16.217     -17.428       0.736
 H          13.711     -17.396       0.717
 H          20.647     -14.970       0.637
 H          22.082      -2.727       0.249
 H          22.049      -5.248       0.355
 H          22.011      -7.770       0.426
 H          21.972     -10.296       0.489
 H          22.143       2.322       0.013
 H          21.936     -12.823       0.564
 H          18.431     -16.193       0.686
 H          22.114      -0.204       0.122
 H           8.238      -2.554      -0.062
 H           8.203      -5.077       0.031
 H           8.170      -7.600       0.134
 H           8.273      -0.032      -0.137
 C          18.887       3.605      -0.532
 C          20.370       3.586      -0.382
 C          21.073       4.882      -0.261
 C          16.732       4.881      -0.643
 C          18.193       4.885      -0.666
 C          18.905       6.137      -0.460
 C          20.381       6.085      -0.250
 C          12.335       4.960      -0.741
 C          13.798       4.918      -0.688
 C          14.543       6.168      -0.568
 C          16.021       6.152      -0.534
 C          16.765       7.416      -0.444
 C          18.187       7.366      -0.331
 C          11.647       6.234      -0.523
 C          12.398       7.440      -0.374
 C          13.826       7.452      -0.465
 C          14.612       8.704      -0.358
 C          16.014       8.687      -0.347
 C           9.452       5.029      -0.400
 C          10.169       6.210      -0.360
 C          13.641      -7.660      -0.310
 C          12.196      -7.633      -0.260
 C          11.451      -8.890      -0.123
 C           9.984      -8.906       0.046
 C          11.538      -1.351      -0.477
 C           9.247     -10.168       0.063
 C          15.828      -8.937      -0.290
 C          14.349      -8.915      -0.316
 C          15.914      -1.366      -0.184
 C          13.621     -10.182      -0.153
 C          14.445      -1.348      -0.206
 C          12.159     -10.171      -0.099
 C          13.733      -2.595      -0.179
 C          11.606       3.698      -0.621
 C          11.410     -11.441      -0.173
 C          12.279      -2.603      -0.251
 C          10.125       3.720      -0.523
 C           9.933     -11.415      -0.026
 C          11.560      -3.862      -0.233
 C           9.408       2.493      -0.351
 C           9.216     -12.687       0.185
 C          20.313      -1.423      -0.107
 C          17.971     -10.242       0.007
 C          18.829      -1.442      -0.308
 C          16.509     -10.215      -0.108
 C          18.058      -2.680      -0.120
 C          15.982       3.631      -0.609
 C          15.782     -11.477      -0.141
 C          16.601      -2.640      -0.115
 C          14.517       3.648      -0.616
 C          14.313     -11.459      -0.173
 C          13.790       2.392      -0.539
 C          13.558     -12.716      -0.163
 C          15.873      -3.920      -0.016
 C          14.416      -3.900      -0.034
 C          12.321       2.413      -0.487
 C          12.102     -12.729      -0.217
 C          13.698      -5.176      -0.102
 C          11.579       1.158      -0.441
 C          11.382     -13.974       0.097
 C          12.242      -5.131      -0.151
 C          10.108       1.220      -0.262
 C           9.904     -13.890       0.286
 C          20.971      -2.725      -0.025
 C          18.686     -11.522      -0.066
 C          20.238      -3.976      -0.046
 C          18.140       2.344      -0.397
 C          17.962     -12.800      -0.140
 C          18.738      -3.948      -0.052
 C          16.672       2.351      -0.506
 C          16.511     -12.750      -0.117
 C          18.026      -5.201      -0.036
 C          15.962       1.077      -0.603
 C          15.762     -13.994       0.068
 C          16.563      -5.213      -0.047
 C          14.479       1.098      -0.620
 C          14.273     -13.977       0.046
 C          15.843      -6.465      -0.029
 C          13.740      -0.137      -0.544
 C          13.525     -15.229       0.214
 C          14.383      -6.454      -0.050
 C          12.293      -0.125      -0.502
 C          12.092     -15.186       0.310
 C          20.933      -5.242       0.091
 C          18.853       1.067      -0.298
 C          18.645     -14.056       0.178
 C          20.239      -6.532       0.096
 C          18.111      -0.197      -0.392
 C          17.901     -15.260       0.360
 C          18.764      -6.473      -0.127
 C          16.668      -0.179      -0.491
 C          16.474     -15.267       0.251
 C          18.010      -7.712      -0.131
 C          15.681     -16.510       0.383
 C          16.566      -7.690      -0.252
 C          14.280     -16.492       0.377
 C          20.902      -7.802       0.337
 C          20.178      -9.029       0.249
 C          18.715      -8.982       0.022
 C          20.873     -10.312       0.261
 C          20.169     -11.541       0.120
 C          11.474      -6.388      -0.292
 C          21.052       2.351      -0.184
 C          20.840     -12.838       0.338
 C          20.321       1.092      -0.095
 C          20.123     -14.020       0.411
 C          21.005      -0.151       0.057
 C           9.987      -6.404      -0.134
 C          10.059      -3.849      -0.295
 C          10.051      -1.291      -0.319
 C           9.351      -2.579      -0.287
 C           9.322      -5.100      -0.194
 C           9.280      -7.661       0.098
 C           9.383      -0.006      -0.167
