   142
 frame    339
 H          22.172       4.851      -0.067
 H          20.938       7.032      -0.099
 H          18.753       8.311      -0.074
 H          14.063       9.635      -0.055
 H          16.571       9.603      -0.037
 H           9.637       7.173      -0.196
 H           8.348       5.026      -0.217
 H          11.850       8.399      -0.126
 H           8.142     -10.125       0.251
 H           8.313       2.496      -0.186
 H           8.113     -12.652       0.384
 H           9.346     -14.828       0.525
 H          11.529     -16.106       0.629
 H          16.217     -17.428       0.736
 H          13.711     -17.396       0.717
 H          20.647     -14.970       0.637
 H          22.082      -2.727       0.249
 H          22.049      -5.248       0.355
 H          22.011      -7.770       0.426
 H          21.972     -10.296       0.489
 H          22.143       2.322       0.013
 H          21.936     -12.823       0.564
 H          18.431     -16.193       0.686
 H          22.114      -0.204       0.122
 H           8.238      -2.554      -0.062
 H           8.203      -5.077       0.031
 H           8.170      -7.600       0.134
 H           8.273      -0.032      -0.137
 C          18.888       3.609      -0.285
 C          20.339       3.585      -0.039
 C          21.053       4.881      -0.060
 C          16.735       4.904      -0.684
 C          18.202       4.888      -0.417
 C          18.927       6.166      -0.270
 C          20.391       6.094      -0.106
 C          12.318       4.966      -0.486
 C          13.790       4.942      -0.714
 C          14.536       6.222      -0.746
 C          16.030       6.203      -0.726
 C          16.800       7.444      -0.526
 C          18.212       7.389      -0.354
 C          11.621       6.264      -0.339
 C          12.375       7.467      -0.414
 C          13.796       7.481      -0.548
 C          14.606       8.674      -0.282
 C          16.013       8.649      -0.262
 C           9.459       5.022      -0.170
 C          10.155       6.221      -0.191
 C          13.629      -7.673      -0.227
 C          12.156      -7.647      -0.093
 C          11.420      -8.919      -0.111
 C           9.961      -8.909       0.008
 C          11.525      -1.353      -0.406
 C           9.266     -10.150       0.260
 C          15.832      -8.962      -0.259
 C          14.333      -8.949      -0.285
 C          15.911      -1.423      -0.373
 C          13.601     -10.218      -0.235
 C          14.458      -1.412      -0.409
 C          12.148     -10.182      -0.115
 C          13.725      -2.637      -0.434
 C          11.600       3.700      -0.387
 C          11.405     -11.436       0.080
 C          12.269      -2.628      -0.461
 C          10.150       3.711      -0.168
 C           9.947     -11.387       0.310
 C          11.546      -3.877      -0.463
 C           9.435       2.489      -0.179
 C           9.227     -12.677       0.382
 C          20.338      -1.430      -0.184
 C          17.982     -10.254      -0.005
 C          18.835      -1.445      -0.256
 C          16.528     -10.252      -0.187
 C          18.058      -2.701      -0.337
 C          15.980       3.651      -0.693
 C          15.779     -11.503      -0.222
 C          16.606      -2.674      -0.359
 C          14.516       3.674      -0.703
 C          14.311     -11.489      -0.249
 C          13.775       2.421      -0.636
 C          13.560     -12.741      -0.180
 C          15.883      -3.938      -0.191
 C          14.411      -3.920      -0.235
 C          12.318       2.426      -0.510
 C          12.094     -12.719       0.058
 C          13.687      -5.176      -0.365
 C          11.560       1.185      -0.430
 C          11.344     -13.979       0.294
 C          12.232      -5.139      -0.379
 C          10.100       1.224      -0.329
 C           9.884     -13.891       0.442
 C          20.986      -2.725       0.039
 C          18.683     -11.524       0.203
 C          20.261      -3.979      -0.049
 C          18.144       2.351      -0.413
 C          17.962     -12.795       0.141
 C          18.752      -3.967      -0.302
 C          16.691       2.377      -0.568
 C          16.502     -12.775      -0.142
 C          18.028      -5.212      -0.245
 C          15.967       1.096      -0.566
 C          15.760     -14.053      -0.133
 C          16.574      -5.213      -0.273
 C          14.468       1.120      -0.606
 C          14.272     -14.039      -0.156
 C          15.845      -6.438      -0.197
 C          13.731      -0.137      -0.474
 C          13.502     -15.261       0.114
 C          14.387      -6.426      -0.236
 C          12.264      -0.102      -0.321
 C          12.072     -15.193       0.280
 C          20.958      -5.237       0.129
 C          18.873       1.093      -0.301
 C          18.676     -14.066       0.364
 C          20.272      -6.518      -0.007
 C          18.132      -0.172      -0.221
 C          17.922     -15.270       0.326
 C          18.780      -6.467      -0.081
 C          16.669      -0.174      -0.403
 C          16.492     -15.300       0.149
 C          18.035      -7.719       0.033
 C          15.684     -16.484       0.460
 C          16.573      -7.707      -0.152
 C          14.277     -16.467       0.455
 C          20.934      -7.808       0.175
 C          20.197      -9.037       0.209
 C          18.738      -9.004       0.039
 C          20.851     -10.305       0.458
 C          20.135     -11.517       0.472
 C          11.455      -6.384      -0.251
 C          21.020       2.349      -0.000
 C          20.817     -12.823       0.540
 C          20.325       1.098      -0.167
 C          20.131     -14.019       0.561
 C          21.030      -0.152      -0.119
 C           9.950      -6.396      -0.234
 C          10.038      -3.852      -0.276
 C          10.027      -1.297      -0.400
 C           9.345      -2.578      -0.226
 C           9.305      -5.095      -0.145
 C           9.254      -7.670      -0.081
 C           9.363      -0.003      -0.354
