   142
 frame    333
 H          22.172       4.851      -0.067
 H          20.938       7.032      -0.099
 H          18.753       8.311      -0.074
 H          14.063       9.635      -0.055
 H          16.571       9.603      -0.037
 H           9.637       7.173      -0.196
 H           8.348       5.026      -0.217
 H          11.850       8.399      -0.126
 H           8.142     -10.125       0.251
 H           8.313       2.496      -0.186
 H           8.113     -12.652       0.384
 H           9.346     -14.828       0.525
 H          11.529     -16.106       0.629
 H          16.217     -17.428       0.736
 H          13.711     -17.396       0.717
 H          20.647     -14.970       0.637
 H          22.082      -2.727       0.249
 H          22.049      -5.248       0.355
 H          22.011      -7.770       0.426
 H          21.972     -10.296       0.489
 H          22.143       2.322       0.013
 H          21.936     -12.823       0.564
 H          18.431     -16.193       0.686
 H          22.114      -0.204       0.122
 H           8.238      -2.554      -0.062
 H           8.203      -5.077       0.031
 H           8.170      -7.600       0.134
 H           8.273      -0.032      -0.137
 C          18.875       3.597      -0.301
 C          20.317       3.584      -0.015
 C          21.057       4.900       0.028
 C          16.736       4.895      -0.679
 C          18.177       4.874      -0.466
 C          18.907       6.145      -0.259
 C          20.384       6.100      -0.035
 C          12.343       4.946      -0.523
 C          13.792       4.936      -0.711
 C          14.535       6.191      -0.684
 C          16.025       6.168      -0.656
 C          16.767       7.420      -0.504
 C          18.215       7.380      -0.342
 C          11.638       6.242      -0.335
 C          12.371       7.459      -0.389
 C          13.824       7.460      -0.528
 C          14.610       8.692      -0.301
 C          16.009       8.668      -0.288
 C           9.465       5.040      -0.090
 C          10.165       6.228      -0.117
 C          13.630      -7.687      -0.198
 C          12.167      -7.648      -0.100
 C          11.446      -8.908      -0.062
 C           9.963      -8.925      -0.027
 C          11.544      -1.347      -0.387
 C           9.256     -10.171       0.244
 C          15.824      -8.964      -0.287
 C          14.344      -8.951      -0.308
 C          15.917      -1.398      -0.343
 C          13.598     -10.200      -0.248
 C          14.453      -1.381      -0.384
 C          12.148     -10.173      -0.083
 C          13.728      -2.655      -0.484
 C          11.611       3.687      -0.406
 C          11.418     -11.421       0.065
 C          12.275      -2.616      -0.478
 C          10.161       3.707      -0.144
 C           9.961     -11.386       0.341
 C          11.543      -3.877      -0.388
 C           9.424       2.514      -0.194
 C           9.221     -12.689       0.470
 C          20.321      -1.455      -0.213
 C          17.976     -10.241       0.021
 C          18.815      -1.440      -0.243
 C          16.533     -10.238      -0.202
 C          18.063      -2.692      -0.345
 C          15.974       3.632      -0.689
 C          15.778     -11.485      -0.216
 C          16.607      -2.691      -0.410
 C          14.521       3.659      -0.699
 C          14.315     -11.475      -0.241
 C          13.772       2.397      -0.652
 C          13.564     -12.733      -0.188
 C          15.869      -3.944      -0.362
 C          14.427      -3.928      -0.410
 C          12.317       2.419      -0.482
 C          12.114     -12.708       0.016
 C          13.693      -5.177      -0.408
 C          11.583       1.184      -0.375
 C          11.367     -13.958       0.308
 C          12.231      -5.154      -0.390
 C          10.104       1.238      -0.366
 C           9.889     -13.891       0.505
 C          20.989      -2.721       0.054
 C          18.667     -11.509       0.185
 C          20.239      -3.974      -0.022
 C          18.141       2.344      -0.381
 C          17.940     -12.778       0.099
 C          18.754      -3.967      -0.231
 C          16.694       2.356      -0.589
 C          16.495     -12.765      -0.145
 C          18.030      -5.226      -0.257
 C          15.957       1.103      -0.588
 C          15.759     -14.016      -0.059
 C          16.575      -5.212      -0.324
 C          14.479       1.128      -0.627
 C          14.275     -14.004      -0.081
 C          15.845      -6.468      -0.162
 C          13.728      -0.118      -0.442
 C          13.523     -15.236       0.128
 C          14.385      -6.450      -0.208
 C          12.275      -0.095      -0.331
 C          12.074     -15.193       0.301
 C          20.952      -5.235       0.141
 C          18.844       1.092      -0.250
 C          18.648     -14.051       0.372
 C          20.262      -6.502      -0.037
 C          18.125      -0.170      -0.224
 C          17.920     -15.266       0.346
 C          18.760      -6.474      -0.066
 C          16.671      -0.149      -0.376
 C          16.473     -15.270       0.157
 C          18.024      -7.711       0.031
 C          15.678     -16.490       0.437
 C          16.569      -7.731      -0.120
 C          14.278     -16.475       0.427
 C          20.926      -7.794       0.139
 C          20.187      -9.053       0.169
 C          18.714      -8.997       0.097
 C          20.863     -10.314       0.444
 C          20.113     -11.511       0.501
 C          11.468      -6.391      -0.234
 C          21.034       2.367      -0.024
 C          20.829     -12.839       0.631
 C          20.325       1.111      -0.200
 C          20.119     -14.020       0.634
 C          21.025      -0.170      -0.151
 C           9.964      -6.380      -0.265
 C          10.052      -3.851      -0.251
 C          10.037      -1.321      -0.429
 C           9.345      -2.575      -0.207
 C           9.303      -5.092      -0.129
 C           9.263      -7.652      -0.115
 C           9.368      -0.022      -0.383
