   142
 frame    230
 H          22.172       4.851      -0.067
 H          20.938       7.032      -0.099
 H          18.753       8.311      -0.074
 H          14.063       9.635      -0.055
 H          16.571       9.603      -0.037
 H           9.637       7.173      -0.196
 H           8.348       5.026      -0.217
 H          11.850       8.399      -0.126
 H           8.142     -10.125       0.251
 H           8.313       2.496      -0.186
 H           8.113     -12.652       0.384
 H           9.346     -14.828       0.525
 H          11.529     -16.106       0.629
 H          16.217     -17.428       0.736
 H          13.711     -17.396       0.717
 H          20.647     -14.970       0.637
 H          22.082      -2.727       0.249
 H          22.049      -5.248       0.355
 H          22.011      -7.770       0.426
 H          21.972     -10.296       0.489
 H          22.143       2.322       0.013
 H          21.936     -12.823       0.564
 H          18.431     -16.193       0.686
 H          22.114      -0.204       0.122
 H           8.238      -2.554      -0.062
 H           8.203      -5.077       0.031
 H           8.170      -7.600       0.134
 H           8.273      -0.032      -0.137
 C          18.881       3.603      -0.289
 C          20.334       3.586      -0.170
 C          21.059       4.885      -0.131
 C          16.743       4.911       0.022
 C          18.164       4.872      -0.264
 C          18.908       6.149      -0.283
 C          20.391       6.096      -0.211
 C          12.364       4.947      -0.335
 C          13.781       4.950      -0.023
 C          14.521       6.164       0.278
 C          16.022       6.145       0.311
 C          16.772       7.378       0.070
 C          18.190       7.374      -0.220
 C          11.639       6.243      -0.359
 C          12.389       7.448      -0.250
 C          13.805       7.417       0.032
 C          14.603       8.650      -0.022
 C          16.009       8.625      -0.018
 C           9.464       5.028      -0.255
 C          10.161       6.223      -0.298
 C          13.626      -7.691      -0.414
 C          12.168      -7.647      -0.249
 C          11.429      -8.906      -0.072
 C           9.937      -8.885      -0.022
 C          11.527      -1.362      -0.454
 C           9.255     -10.161       0.157
 C          15.818      -8.982      -0.291
 C          14.356      -8.969      -0.326
 C          15.937      -1.401      -0.702
 C          13.634     -10.200       0.013
 C          14.452      -1.381      -0.718
 C          12.141     -10.174       0.032
 C          13.709      -2.653      -0.643
 C          11.613       3.697      -0.368
 C          11.402     -11.418       0.118
 C          12.263      -2.619      -0.469
 C          10.154       3.714      -0.301
 C           9.941     -11.402       0.199
 C          11.507      -3.864      -0.349
 C           9.422       2.497      -0.271
 C           9.214     -12.685       0.344
 C          20.321      -1.476      -0.127
 C          17.978     -10.240       0.135
 C          18.845      -1.457      -0.292
 C          16.492     -10.232       0.068
 C          18.082      -2.692      -0.344
 C          15.986       3.644      -0.096
 C          15.782     -11.457       0.396
 C          16.644      -2.686      -0.574
 C          14.510       3.665      -0.124
 C          14.307     -11.440       0.371
 C          13.806       2.420      -0.395
 C          13.549     -12.700       0.542
 C          15.908      -3.936      -0.638
 C          14.411      -3.918      -0.665
 C          12.313       2.431      -0.395
 C          12.120     -12.686       0.226
 C          13.673      -5.159      -0.558
 C          11.568       1.185      -0.421
 C          11.359     -13.957       0.282
 C          12.227      -5.135      -0.383
 C          10.078       1.203      -0.381
 C           9.877     -13.896       0.342
 C          21.013      -2.724       0.002
 C          18.686     -11.503       0.234
 C          20.281      -3.969       0.062
 C          18.146       2.355      -0.303
 C          17.941     -12.751       0.306
 C          18.799      -3.952      -0.173
 C          16.652       2.380      -0.361
 C          16.508     -12.735       0.590
 C          18.042      -5.202      -0.246
 C          15.945       1.133      -0.627
 C          15.762     -13.934       0.943
 C          16.615      -5.193      -0.493
 C          14.494       1.147      -0.639
 C          14.253     -13.914       0.930
 C          15.872      -6.473      -0.530
 C          13.733      -0.118      -0.661
 C          13.506     -15.160       0.728
 C          14.383      -6.451      -0.560
 C          12.271      -0.112      -0.494
 C          12.088     -15.174       0.436
 C          20.983      -5.231       0.104
 C          18.865       1.099      -0.299
 C          18.659     -14.046       0.374
 C          20.248      -6.468       0.061
 C          18.132      -0.185      -0.383
 C          17.904     -15.247       0.504
 C          18.772      -6.460      -0.118
 C          16.685      -0.153      -0.616
 C          16.477     -15.202       0.746
 C          18.032      -7.709      -0.116
 C          15.680     -16.432       0.718
 C          16.584      -7.729      -0.354
 C          14.275     -16.418       0.711
 C          20.913      -7.753       0.191
 C          20.214      -9.011       0.176
 C          18.733      -9.000       0.061
 C          20.862     -10.300       0.363
 C          20.144     -11.529       0.353
 C          11.466      -6.369      -0.287
 C          21.034       2.352      -0.107
 C          20.835     -12.835       0.491
 C          20.352       1.074      -0.212
 C          20.143     -14.027       0.462
 C          21.015      -0.199      -0.108
 C           9.969      -6.343      -0.169
 C          10.005      -3.849      -0.177
 C          10.032      -1.344      -0.339
 C           9.312      -2.581      -0.258
 C           9.275      -5.082      -0.162
 C           9.272      -7.611      -0.048
 C           9.379      -0.052      -0.314
