   142
 frame    545
 H          22.172       4.851      -0.067
 H          20.938       7.032      -0.099
 H          18.753       8.311      -0.074
 H          14.063       9.635      -0.055
 H          16.571       9.603      -0.037
 H           9.637       7.173      -0.196
 H           8.348       5.026      -0.217
 H          11.850       8.399      -0.126
 H           8.142     -10.125       0.251
 H           8.313       2.496      -0.186
 H           8.113     -12.652       0.384
 H           9.346     -14.828       0.525
 H          11.529     -16.106       0.629
 H          16.217     -17.428       0.736
 H          13.711     -17.396       0.717
 H          20.647     -14.970       0.637
 H          22.082      -2.727       0.249
 H          22.049      -5.248       0.355
 H          22.011      -7.770       0.426
 H          21.972     -10.296       0.489
 H          22.143       2.322       0.013
 H          21.936     -12.823       0.564
 H          18.431     -16.193       0.686
 H          22.114      -0.204       0.122
 H           8.238      -2.554      -0.062
 H           8.203      -5.077       0.031
 H           8.170      -7.600       0.134
 H           8.273      -0.032      -0.137
 C          18.888       3.571      -0.014
 C          20.376       3.550       0.010
 C          21.078       4.853       0.001
 C          16.752       4.898      -0.318
 C          18.183       4.831      -0.044
 C          18.889       6.092       0.062
 C          20.377       6.053       0.014
 C          12.340       4.901      -0.116
 C          13.777       4.927      -0.343
 C          14.551       6.164      -0.425
 C          16.006       6.147      -0.404
 C          16.738       7.407      -0.193
 C          18.179       7.333      -0.001
 C          11.663       6.171      -0.022
 C          12.395       7.404      -0.055
 C          13.843       7.440      -0.205
 C          14.605       8.682      -0.081
 C          16.002       8.664      -0.080
 C           9.447       5.001      -0.136
 C          10.165       6.178      -0.091
 C          13.623      -7.667       0.067
 C          12.154      -7.645       0.002
 C          11.420      -8.891       0.188
 C           9.938      -8.859       0.242
 C          11.522      -1.352      -0.284
 C           9.232     -10.121       0.299
 C          15.822      -8.959       0.234
 C          14.330      -8.942       0.230
 C          15.913      -1.385      -0.041
 C          13.612     -10.187       0.242
 C          14.440      -1.362      -0.045
 C          12.166     -10.147       0.303
 C          13.680      -2.607      -0.110
 C          11.597       3.657      -0.114
 C          11.398     -11.368       0.382
 C          12.216      -2.613      -0.179
 C          10.109       3.676      -0.118
 C           9.912     -11.347       0.365
 C          11.449      -3.865      -0.210
 C           9.400       2.462      -0.134
 C           9.220     -12.651       0.452
 C          20.318      -1.462       0.041
 C          17.945     -10.216       0.390
 C          18.847      -1.442      -0.146
 C          16.507     -10.236       0.275
 C          18.117      -2.685      -0.070
 C          15.980       3.662      -0.290
 C          15.777     -11.497       0.214
 C          16.648      -2.645      -0.061
 C          14.516       3.674      -0.305
 C          14.312     -11.475       0.191
 C          13.776       2.415      -0.165
 C          13.547     -12.702       0.239
 C          15.891      -3.904      -0.033
 C          14.402      -3.888      -0.058
 C          12.325       2.411      -0.104
 C          12.110     -12.630       0.468
 C          13.657      -5.153      -0.019
 C          11.552       1.169      -0.147
 C          11.405     -13.874       0.626
 C          12.185      -5.131      -0.098
 C          10.069       1.177      -0.094
 C           9.918     -13.847       0.558
 C          20.988      -2.714       0.104
 C          18.680     -11.465       0.492
 C          20.288      -3.968       0.122
 C          18.122       2.335      -0.028
 C          17.948     -12.706       0.539
 C          18.854      -3.957      -0.054
 C          16.679       2.387      -0.135
 C          16.513     -12.741       0.279
 C          18.083      -5.212       0.003
 C          15.966       1.140      -0.083
 C          15.734     -13.978       0.243
 C          16.613      -5.193       0.039
 C          14.460       1.158      -0.097
 C          14.284     -13.963       0.220
 C          15.853      -6.436       0.125
 C          13.723      -0.110      -0.175
 C          13.540     -15.207       0.473
 C          14.374      -6.421       0.101
 C          12.257      -0.102      -0.247
 C          12.099     -15.124       0.657
 C          20.955      -5.231       0.207
 C          18.871       1.086      -0.027
 C          18.609     -13.975       0.690
 C          20.252      -6.474       0.218
 C          18.149      -0.177      -0.154
 C          17.882     -15.201       0.702
 C          18.786      -6.465       0.017
 C          16.679      -0.147      -0.128
 C          16.444     -15.245       0.501
 C          18.043      -7.712       0.106
 C          15.673     -16.483       0.650
 C          16.573      -7.707       0.108
 C          14.275     -16.459       0.634
 C          20.920      -7.745       0.385
 C          20.206      -8.986       0.431
 C          18.729      -8.976       0.320
 C          20.889     -10.275       0.499
 C          20.174     -11.486       0.526
 C          11.448      -6.374      -0.130
 C          21.056       2.317       0.054
 C          20.822     -12.796       0.606
 C          20.352       1.047       0.073
 C          20.093     -13.977       0.677
 C          21.032      -0.206       0.093
 C           9.969      -6.351       0.020
 C          10.005      -3.843      -0.102
 C          10.048      -1.331      -0.158
 C           9.338      -2.570      -0.147
 C           9.305      -5.092      -0.054
 C           9.260      -7.604       0.148
 C           9.364      -0.061      -0.116
