   142
 frame    293
 H          22.172       4.851      -0.067
 H          20.938       7.032      -0.099
 H          18.753       8.311      -0.074
 H          14.063       9.635      -0.055
 H          16.571       9.603      -0.037
 H           9.637       7.173      -0.196
 H           8.348       5.026      -0.217
 H          11.850       8.399      -0.126
 H           8.142     -10.125       0.251
 H           8.313       2.496      -0.186
 H           8.113     -12.652       0.384
 H           9.346     -14.828       0.525
 H          11.529     -16.106       0.629
 H          16.217     -17.428       0.736
 H          13.711     -17.396       0.717
 H          20.647     -14.970       0.637
 H          22.082      -2.727       0.249
 H          22.049      -5.248       0.355
 H          22.011      -7.770       0.426
 H          21.972     -10.296       0.489
 H          22.143       2.322       0.013
 H          21.936     -12.823       0.564
 H          18.431     -16.193       0.686
 H          22.114      -0.204       0.122
 H           8.238      -2.554      -0.062
 H           8.203      -5.077       0.031
 H           8.170      -7.600       0.134
 H           8.273      -0.032      -0.137
 C          18.900       3.594      -0.268
 C          20.384       3.564      -0.154
 C          21.077       4.842      -0.178
 C          16.750       4.880      -0.501
 C          18.211       4.869      -0.225
 C          18.945       6.131      -0.120
 C          20.402       6.056      -0.150
 C          12.309       4.945      -0.291
 C          13.778       4.921      -0.538
 C          14.543       6.186      -0.454
 C          16.022       6.164      -0.446
 C          16.776       7.418      -0.250
 C          18.201       7.347      -0.130
 C          11.601       6.220      -0.194
 C          12.380       7.415      -0.175
 C          13.811       7.447      -0.257
 C          14.604       8.675      -0.171
 C          16.009       8.658      -0.151
 C           9.441       4.986      -0.315
 C          10.148       6.180      -0.254
 C          13.645      -7.618      -0.281
 C          12.159      -7.614      -0.219
 C          11.420      -8.877      -0.162
 C           9.963      -8.872       0.031
 C          11.501      -1.381      -0.348
 C           9.257     -10.139       0.170
 C          15.817      -8.914      -0.068
 C          14.342      -8.899      -0.106
 C          15.915      -1.452      -0.628
 C          13.605     -10.172      -0.153
 C          14.459      -1.436      -0.661
 C          12.134     -10.152      -0.104
 C          13.691      -2.644      -0.700
 C          11.590       3.681      -0.361
 C          11.386     -11.415       0.127
 C          12.227      -2.640      -0.457
 C          10.107       3.684      -0.290
 C           9.905     -11.377       0.215
 C          11.502      -3.868      -0.303
 C           9.421       2.462      -0.253
 C           9.203     -12.646       0.293
 C          20.308      -1.467       0.000
 C          17.996     -10.224       0.001
 C          18.864      -1.473      -0.181
 C          16.526     -10.212      -0.086
 C          18.112      -2.714      -0.317
 C          16.003       3.627      -0.657
 C          15.800     -11.488      -0.187
 C          16.661      -2.675      -0.641
 C          14.502       3.645      -0.671
 C          14.305     -11.475      -0.211
 C          13.774       2.376      -0.536
 C          13.552     -12.715       0.016
 C          15.894      -3.931      -0.699
 C          14.429      -3.914      -0.728
 C          12.312       2.394      -0.505
 C          12.085     -12.690       0.260
 C          13.662      -5.162      -0.619
 C          11.555       1.137      -0.492
 C          11.340     -13.944       0.431
 C          12.201      -5.123      -0.368
 C          10.101       1.181      -0.290
 C           9.875     -13.850       0.417
 C          20.973      -2.735       0.147
 C          18.704     -11.510       0.242
 C          20.272      -3.974       0.046
 C          18.154       2.325      -0.427
 C          17.965     -12.768       0.340
 C          18.800      -3.954      -0.130
 C          16.693       2.342      -0.492
 C          16.511     -12.755       0.036
 C          18.067      -5.188      -0.222
 C          15.949       1.068      -0.400
 C          15.757     -14.008       0.156
 C          16.616      -5.199      -0.558
 C          14.477       1.085      -0.422
 C          14.280     -13.992       0.145
 C          15.849      -6.403      -0.466
 C          13.743      -0.170      -0.520
 C          13.515     -15.217       0.408
 C          14.390      -6.388      -0.492
 C          12.260      -0.139      -0.464
 C          12.085     -15.153       0.502
 C          20.939      -5.225       0.254
 C          18.879       1.049      -0.355
 C          18.682     -14.041       0.521
 C          20.237      -6.478       0.186
 C          18.142      -0.215      -0.338
 C          17.906     -15.230       0.573
 C          18.792      -6.442      -0.005
 C          16.655      -0.205      -0.466
 C          16.474     -15.261       0.436
 C          18.037      -7.689      -0.093
 C          15.682     -16.469       0.562
 C          16.559      -7.662      -0.209
 C          14.276     -16.450       0.564
 C          20.900      -7.759       0.368
 C          20.187      -8.996       0.238
 C          18.744      -8.966      -0.010
 C          20.863     -10.283       0.380
 C          20.186     -11.509       0.378
 C          11.442      -6.354      -0.188
 C          21.035       2.324      -0.070
 C          20.849     -12.792       0.442
 C          20.322       1.051      -0.123
 C          20.147     -13.983       0.534
 C          20.998      -0.205       0.078
 C           9.981      -6.349      -0.041
 C          10.015      -3.847      -0.189
 C          10.047      -1.339      -0.208
 C           9.342      -2.592      -0.103
 C           9.315      -5.084      -0.015
 C           9.288      -7.610       0.113
 C           9.392      -0.057      -0.131
