   142
 frame    290
 H          22.172       4.851      -0.067
 H          20.938       7.032      -0.099
 H          18.753       8.311      -0.074
 H          14.063       9.635      -0.055
 H          16.571       9.603      -0.037
 H           9.637       7.173      -0.196
 H           8.348       5.026      -0.217
 H          11.850       8.399      -0.126
 H           8.142     -10.125       0.251
 H           8.313       2.496      -0.186
 H           8.113     -12.652       0.384
 H           9.346     -14.828       0.525
 H          11.529     -16.106       0.629
 H          16.217     -17.428       0.736
 H          13.711     -17.396       0.717
 H          20.647     -14.970       0.637
 H          22.082      -2.727       0.249
 H          22.049      -5.248       0.355
 H          22.011      -7.770       0.426
 H          21.972     -10.296       0.489
 H          22.143       2.322       0.013
 H          21.936     -12.823       0.564
 H          18.431     -16.193       0.686
 H          22.114      -0.204       0.122
 H           8.238      -2.554      -0.062
 H           8.203      -5.077       0.031
 H           8.170      -7.600       0.134
 H           8.273      -0.032      -0.137
 C          18.902       3.593      -0.269
 C          20.373       3.570      -0.174
 C          21.090       4.849      -0.229
 C          16.754       4.880      -0.482
 C          18.215       4.865      -0.197
 C          18.945       6.121      -0.101
 C          20.413       6.057      -0.182
 C          12.307       4.937      -0.259
 C          13.776       4.921      -0.516
 C          14.537       6.189      -0.450
 C          16.029       6.167      -0.440
 C          16.773       7.413      -0.233
 C          18.205       7.342      -0.126
 C          11.601       6.212      -0.185
 C          12.376       7.411      -0.169
 C          13.814       7.447      -0.242
 C          14.606       8.673      -0.133
 C          16.006       8.652      -0.117
 C           9.430       4.995      -0.365
 C          10.136       6.182      -0.282
 C          13.642      -7.622      -0.298
 C          12.155      -7.606      -0.230
 C          11.419      -8.869      -0.167
 C           9.966      -8.874       0.034
 C          11.509      -1.387      -0.327
 C           9.265     -10.141       0.182
 C          15.818      -8.904      -0.065
 C          14.343      -8.887      -0.101
 C          15.916      -1.437      -0.665
 C          13.614     -10.168      -0.136
 C          14.464      -1.422      -0.699
 C          12.139     -10.154      -0.119
 C          13.683      -2.634      -0.698
 C          11.591       3.681      -0.362
 C          11.388     -11.418       0.125
 C          12.223      -2.638      -0.485
 C          10.114       3.689      -0.310
 C           9.911     -11.385       0.194
 C          11.506      -3.870      -0.303
 C           9.430       2.467      -0.243
 C           9.195     -12.656       0.244
 C          20.302      -1.469       0.014
 C          17.994     -10.227      -0.013
 C          18.850      -1.478      -0.165
 C          16.521     -10.208      -0.067
 C          18.119      -2.709      -0.343
 C          15.988       3.634      -0.625
 C          15.790     -11.490      -0.153
 C          16.669      -2.668      -0.642
 C          14.514       3.653      -0.637
 C          14.313     -11.478      -0.175
 C          13.786       2.374      -0.519
 C          13.550     -12.714       0.031
 C          15.905      -3.931      -0.663
 C          14.414      -3.914      -0.695
 C          12.317       2.394      -0.521
 C          12.082     -12.686       0.293
 C          13.652      -5.170      -0.620
 C          11.552       1.135      -0.493
 C          11.337     -13.937       0.451
 C          12.195      -5.122      -0.395
 C          10.101       1.181      -0.289
 C           9.870     -13.856       0.385
 C          20.978      -2.736       0.161
 C          18.703     -11.510       0.243
 C          20.266      -3.976       0.043
 C          18.149       2.326      -0.441
 C          17.971     -12.763       0.373
 C          18.790      -3.955      -0.133
 C          16.684       2.339      -0.476
 C          16.514     -12.753       0.053
 C          18.074      -5.188      -0.246
 C          15.951       1.061      -0.391
 C          15.762     -14.014       0.164
 C          16.625      -5.208      -0.560
 C          14.477       1.080      -0.419
 C          14.274     -13.998       0.153
 C          15.850      -6.420      -0.500
 C          13.739      -0.170      -0.540
 C          13.514     -15.211       0.420
 C          14.395      -6.405      -0.531
 C          12.255      -0.143      -0.475
 C          12.075     -15.148       0.507
 C          20.942      -5.222       0.268
 C          18.881       1.043      -0.363
 C          18.684     -14.036       0.538
 C          20.235      -6.474       0.202
 C          18.150      -0.221      -0.348
 C          17.913     -15.223       0.580
 C          18.777      -6.431       0.011
 C          16.660      -0.201      -0.487
 C          16.480     -15.253       0.449
 C          18.044      -7.682      -0.104
 C          15.679     -16.463       0.602
 C          16.565      -7.667      -0.228
 C          14.277     -16.443       0.601
 C          20.903      -7.752       0.398
 C          20.185      -8.997       0.239
 C          18.744      -8.960      -0.015
 C          20.854     -10.289       0.392
 C          20.174     -11.516       0.354
 C          11.454      -6.344      -0.167
 C          21.026       2.329      -0.059
 C          20.859     -12.805       0.392
 C          20.325       1.052      -0.119
 C          20.150     -13.987       0.503
 C          21.003      -0.209       0.106
 C           9.985      -6.347      -0.029
 C          10.021      -3.846      -0.194
 C          10.050      -1.344      -0.197
 C           9.340      -2.592      -0.089
 C           9.309      -5.080      -0.001
 C           9.282      -7.604       0.141
 C           9.387      -0.064      -0.105
