   142
 frame    164
 H          22.172       4.851      -0.067
 H          20.938       7.032      -0.099
 H          18.753       8.311      -0.074
 H          14.063       9.635      -0.055
 H          16.571       9.603      -0.037
 H           9.637       7.173      -0.196
 H           8.348       5.026      -0.217
 H          11.850       8.399      -0.126
 H           8.142     -10.125       0.251
 H           8.313       2.496      -0.186
 H           8.113     -12.652       0.384
 H           9.346     -14.828       0.525
 H          11.529     -16.106       0.629
 H          16.217     -17.428       0.736
 H          13.711     -17.396       0.717
 H          20.647     -14.970       0.637
 H          22.082      -2.727       0.249
 H          22.049      -5.248       0.355
 H          22.011      -7.770       0.426
 H          21.972     -10.296       0.489
 H          22.143       2.322       0.013
 H          21.936     -12.823       0.564
 H          18.431     -16.193       0.686
 H          22.114      -0.204       0.122
 H           8.238      -2.554      -0.062
 H           8.203      -5.077       0.031
 H           8.170      -7.600       0.134
 H           8.273      -0.032      -0.137
 C          18.879       3.596      -0.023
 C          20.359       3.574       0.016
 C          21.089       4.856       0.155
 C          16.701       4.885      -0.056
 C          18.180       4.869       0.014
 C          18.934       6.138       0.202
 C          20.420       6.081       0.280
 C          12.339       4.939      -0.039
 C          13.816       4.926      -0.092
 C          14.549       6.181       0.048
 C          15.998       6.164       0.069
 C          16.759       7.418       0.054
 C          18.206       7.365       0.107
 C          11.616       6.232       0.148
 C          12.370       7.443       0.055
 C          13.817       7.456       0.029
 C          14.604       8.685      -0.061
 C          16.002       8.664      -0.056
 C           9.431       5.004       0.018
 C          10.131       6.209       0.168
 C          13.634      -7.680      -0.154
 C          12.167      -7.663      -0.236
 C          11.427      -8.884      -0.014
 C           9.945      -8.891      -0.050
 C          11.514      -1.344      -0.590
 C           9.251     -10.152       0.143
 C          15.826      -8.951       0.018
 C          14.332      -8.931       0.005
 C          15.899      -1.428      -0.358
 C          13.592     -10.157       0.242
 C          14.465      -1.408      -0.394
 C          12.140     -10.136       0.252
 C          13.698      -2.647      -0.506
 C          11.608       3.691      -0.119
 C          11.401     -11.396       0.384
 C          12.226      -2.615      -0.713
 C          10.129       3.703      -0.113
 C           9.917     -11.375       0.398
 C          11.456      -3.879      -0.590
 C           9.424       2.489      -0.284
 C           9.194     -12.651       0.621
 C          20.345      -1.456      -0.228
 C          17.983     -10.203       0.350
 C          18.866      -1.434      -0.454
 C          16.530     -10.194       0.288
 C          18.126      -2.688      -0.581
 C          15.972       3.610      -0.152
 C          15.779     -11.443       0.368
 C          16.642      -2.684      -0.451
 C          14.512       3.627      -0.156
 C          14.303     -11.427       0.339
 C          13.762       2.373      -0.198
 C          13.566     -12.685       0.486
 C          15.903      -3.930      -0.352
 C          14.398      -3.910      -0.398
 C          12.307       2.393      -0.171
 C          12.091     -12.655       0.535
 C          13.657      -5.171      -0.410
 C          11.568       1.150      -0.365
 C          11.347     -13.913       0.810
 C          12.184      -5.177      -0.622
 C          10.083       1.197      -0.388
 C           9.867     -13.862       0.853
 C          20.996      -2.722      -0.011
 C          18.687     -11.488       0.492
 C          20.299      -3.982      -0.193
 C          18.150       2.316      -0.089
 C          17.963     -12.732       0.616
 C          18.871      -3.971      -0.440
 C          16.696       2.335      -0.164
 C          16.485     -12.719       0.527
 C          18.101      -5.252      -0.493
 C          15.967       1.086      -0.335
 C          15.733     -13.961       0.712
 C          16.612      -5.208      -0.353
 C          14.461       1.107      -0.364
 C          14.277     -13.945       0.699
 C          15.839      -6.445      -0.176
 C          13.736      -0.140      -0.414
 C          13.516     -15.197       0.740
 C          14.392      -6.426      -0.209
 C          12.274      -0.108      -0.507
 C          12.067     -15.150       0.777
 C          20.964      -5.250       0.090
 C          18.860       1.050      -0.231
 C          18.667     -14.007       0.891
 C          20.288      -6.503      -0.031
 C          18.131      -0.184      -0.391
 C          17.916     -15.220       0.830
 C          18.807      -6.505      -0.257
 C          16.664      -0.180      -0.375
 C          16.463     -15.237       0.764
 C          18.038      -7.732      -0.122
 C          15.675     -16.472       0.695
 C          16.564      -7.715      -0.101
 C          14.275     -16.454       0.683
 C          20.931      -7.789       0.174
 C          20.218      -9.014       0.148
 C          18.735      -8.975       0.129
 C          20.873     -10.293       0.360
 C          20.167     -11.501       0.561
 C          11.434      -6.410      -0.421
 C          21.035       2.341      -0.110
 C          20.849     -12.797       0.766
 C          20.352       1.064      -0.220
 C          20.145     -13.992       0.959
 C          21.038      -0.173      -0.130
 C           9.946      -6.377      -0.260
 C          10.009      -3.860      -0.419
 C          10.020      -1.326      -0.438
 C           9.336      -2.576      -0.268
 C           9.301      -5.096      -0.172
 C           9.269      -7.641      -0.071
 C           9.369      -0.029      -0.338
