   142
 frame     64
 H          22.172       4.851      -0.067
 H          20.938       7.032      -0.099
 H          18.753       8.311      -0.074
 H          14.063       9.635      -0.055
 H          16.571       9.603      -0.037
 H           9.637       7.173      -0.196
 H           8.348       5.026      -0.217
 H          11.850       8.399      -0.126
 H           8.142     -10.125       0.251
 H           8.313       2.496      -0.186
 H           8.113     -12.652       0.384
 H           9.346     -14.828       0.525
 H          11.529     -16.106       0.629
 H          16.217     -17.428       0.736
 H          13.711     -17.396       0.717
 H          20.647     -14.970       0.637
 H          22.082      -2.727       0.249
 H          22.049      -5.248       0.355
 H          22.011      -7.770       0.426
 H          21.972     -10.296       0.489
 H          22.143       2.322       0.013
 H          21.936     -12.823       0.564
 H          18.431     -16.193       0.686
 H          22.114      -0.204       0.122
 H           8.238      -2.554      -0.062
 H           8.203      -5.077       0.031
 H           8.170      -7.600       0.134
 H           8.273      -0.032      -0.137
 C          18.887       3.594      -0.065
 C          20.368       3.579      -0.020
 C          21.074       4.871      -0.047
 C          16.716       4.871      -0.086
 C          18.177       4.864      -0.047
 C          18.916       6.129      -0.056
 C          20.386       6.069      -0.076
 C          12.343       4.940      -0.116
 C          13.803       4.906      -0.119
 C          14.544       6.163      -0.085
 C          16.004       6.144      -0.069
 C          16.754       7.397      -0.061
 C          18.196       7.355      -0.070
 C          11.632       6.223      -0.126
 C          12.384       7.430      -0.117
 C          13.825       7.435      -0.086
 C          14.607       8.670      -0.066
 C          16.003       8.651      -0.056
 C           9.443       5.022      -0.175
 C          10.163       6.200      -0.173
 C          13.650      -7.591       0.260
 C          12.179      -7.582       0.414
 C          11.435      -8.857       0.352
 C           9.962      -8.854       0.207
 C          11.569      -1.363       0.012
 C           9.253     -10.133       0.249
 C          15.793      -8.867       0.577
 C          14.336      -8.846       0.552
 C          15.905      -1.386      -0.388
 C          13.606     -10.117       0.449
 C          14.463      -1.364      -0.386
 C          12.149     -10.122       0.309
 C          13.676      -2.645      -0.503
 C          11.599       3.691      -0.164
 C          11.407     -11.386       0.360
 C          12.234      -2.602      -0.222
 C          10.117       3.716      -0.156
 C           9.927     -11.374       0.367
 C          11.531      -3.861      -0.116
 C           9.423       2.480      -0.194
 C           9.217     -12.666       0.424
 C          20.269      -1.455       0.252
 C          17.965     -10.194       0.412
 C          18.785      -1.450       0.168
 C          16.504     -10.154       0.500
 C          18.090      -2.677      -0.104
 C          15.973       3.597      -0.098
 C          15.773     -11.414       0.436
 C          16.658      -2.682      -0.432
 C          14.511       3.618      -0.111
 C          14.313     -11.394       0.412
 C          13.775       2.360      -0.007
 C          13.573     -12.658       0.472
 C          15.940      -3.924      -0.330
 C          14.356      -3.904      -0.346
 C          12.313       2.400      -0.138
 C          12.116     -12.648       0.478
 C          13.643      -5.174      -0.414
 C          11.573       1.157      -0.018
 C          11.374     -13.917       0.532
 C          12.205      -5.144      -0.125
 C          10.100       1.182      -0.154
 C           9.902     -13.866       0.490
 C          20.972      -2.702       0.361
 C          18.676     -11.473       0.472
 C          20.243      -3.954       0.364
 C          18.135       2.323      -0.062
 C          17.938     -12.718       0.555
 C          18.764      -3.946       0.058
 C          16.669       2.321       0.027
 C          16.482     -12.695       0.511
 C          18.043      -5.218       0.004
 C          15.925       1.068       0.199
 C          15.738     -13.946       0.583
 C          16.632      -5.210      -0.347
 C          14.473       1.082       0.161
 C          14.281     -13.930       0.568
 C          15.836      -6.464      -0.184
 C          13.746      -0.167      -0.022
 C          13.531     -15.185       0.618
 C          14.391      -6.451      -0.220
 C          12.286      -0.121       0.121
 C          12.088     -15.147       0.592
 C          20.949      -5.222       0.475
 C          18.838       1.062       0.087
 C          18.643     -14.008       0.614
 C          20.221      -6.458       0.457
 C          18.086      -0.186       0.236
 C          17.896     -15.220       0.647
 C          18.724      -6.429       0.345
 C          16.630      -0.201       0.044
 C          16.454     -15.222       0.646
 C          17.990      -7.659       0.525
 C          15.675     -16.460       0.690
 C          16.529      -7.633       0.313
 C          14.278     -16.442       0.678
 C          20.909      -7.743       0.455
 C          20.184      -8.977       0.406
 C          18.708      -8.948       0.493
 C          20.860     -10.268       0.450
 C          20.153     -11.495       0.523
 C          11.489      -6.337       0.203
 C          21.033       2.328      -0.018
 C          20.831     -12.807       0.578
 C          20.318       1.048       0.010
 C          20.117     -13.994       0.606
 C          21.005      -0.200       0.135
 C          10.000      -6.329       0.238
 C          10.044      -3.829       0.148
 C          10.083      -1.328       0.056
 C           9.338      -2.557       0.133
 C           9.296      -5.076       0.225
 C           9.274      -7.598       0.207
 C           9.381      -0.053      -0.067
