   142
 frame    610
 H          22.172       4.851      -0.067
 H          20.938       7.032      -0.099
 H          18.753       8.311      -0.074
 H          14.063       9.635      -0.055
 H          16.571       9.603      -0.037
 H           9.637       7.173      -0.196
 H           8.348       5.026      -0.217
 H          11.850       8.399      -0.126
 H           8.142     -10.125       0.251
 H           8.313       2.496      -0.186
 H           8.113     -12.652       0.384
 H           9.346     -14.828       0.525
 H          11.529     -16.106       0.629
 H          16.217     -17.428       0.736
 H          13.711     -17.396       0.717
 H          20.647     -14.970       0.637
 H          22.082      -2.727       0.249
 H          22.049      -5.248       0.355
 H          22.011      -7.770       0.426
 H          21.972     -10.296       0.489
 H          22.143       2.322       0.013
 H          21.936     -12.823       0.564
 H          18.431     -16.193       0.686
 H          22.114      -0.204       0.122
 H           8.238      -2.554      -0.062
 H           8.203      -5.077       0.031
 H           8.170      -7.600       0.134
 H           8.273      -0.032      -0.137
 C          18.889       3.605       0.107
 C          20.351       3.553      -0.033
 C          21.063       4.831      -0.111
 C          16.701       4.890       0.212
 C          18.143       4.852       0.036
 C          18.929       6.101      -0.212
 C          20.406       6.052      -0.180
 C          12.363       4.927      -0.029
 C          13.820       4.921       0.161
 C          14.531       6.178       0.104
 C          16.012       6.164       0.110
 C          16.797       7.388      -0.056
 C          18.233       7.343      -0.212
 C          11.620       6.191      -0.283
 C          12.349       7.413      -0.257
 C          13.782       7.419      -0.078
 C          14.593       8.647      -0.068
 C          16.009       8.633      -0.067
 C           9.459       4.979      -0.229
 C          10.138       6.186      -0.290
 C          13.633      -7.604       0.349
 C          12.175      -7.598       0.192
 C          11.401      -8.832       0.302
 C           9.934      -8.837       0.236
 C          11.518      -1.365      -0.069
 C           9.260     -10.105       0.233
 C          15.800      -8.867       0.538
 C          14.348      -8.853       0.517
 C          15.917      -1.422       0.094
 C          13.592     -10.118       0.688
 C          14.436      -1.407       0.064
 C          12.094     -10.111       0.574
 C          13.687      -2.650      -0.206
 C          11.591       3.693       0.032
 C          11.395     -11.388       0.522
 C          12.228      -2.628      -0.174
 C          10.133       3.678      -0.151
 C           9.935     -11.352       0.347
 C          11.475      -3.857      -0.151
 C           9.430       2.445      -0.187
 C           9.225     -12.645       0.358
 C          20.317      -1.447       0.054
 C          18.016     -10.185       0.671
 C          18.838      -1.454       0.080
 C          16.519     -10.159       0.728
 C          18.103      -2.696      -0.064
 C          15.969       3.609       0.311
 C          15.768     -11.403       0.796
 C          16.642      -2.679      -0.172
 C          14.507       3.629       0.292
 C          14.307     -11.381       0.774
 C          13.756       2.381       0.263
 C          13.580     -12.669       0.728
 C          15.904      -3.932      -0.410
 C          14.403      -3.911      -0.432
 C          12.267       2.400       0.144
 C          12.133     -12.651       0.540
 C          13.654      -5.133      -0.120
 C          11.529       1.125      -0.036
 C          11.359     -13.903       0.360
 C          12.193      -5.121      -0.098
 C          10.064       1.156      -0.118
 C           9.880     -13.865       0.368
 C          20.999      -2.705       0.038
 C          18.681     -11.484       0.630
 C          20.290      -3.972      -0.051
 C          18.183       2.329       0.230
 C          17.911     -12.727       0.618
 C          18.817      -3.955      -0.007
 C          16.683       2.348       0.306
 C          16.468     -12.711       0.785
 C          18.065      -5.189       0.029
 C          15.936       1.060       0.187
 C          15.751     -13.970       0.764
 C          16.609      -5.172      -0.061
 C          14.481       1.084       0.163
 C          14.265     -13.943       0.740
 C          15.852      -6.390       0.281
 C          13.739      -0.154       0.079
 C          13.481     -15.177       0.644
 C          14.362      -6.375       0.259
 C          12.272      -0.130      -0.066
 C          12.047     -15.141       0.463
 C          20.954      -5.250       0.150
 C          18.888       1.031       0.083
 C          18.653     -14.000       0.445
 C          20.240      -6.487       0.260
 C          18.111      -0.206       0.052
 C          17.941     -15.221       0.514
 C          18.769      -6.437       0.244
 C          16.636      -0.187       0.124
 C          16.506     -15.213       0.677
 C          18.008      -7.665       0.310
 C          15.680     -16.433       0.695
 C          16.540      -7.636       0.403
 C          14.262     -16.417       0.682
 C          20.918      -7.741       0.454
 C          20.218      -8.967       0.418
 C          18.752      -8.922       0.447
 C          20.863     -10.251       0.421
 C          20.138     -11.476       0.496
 C          11.450      -6.350       0.109
 C          21.020       2.300      -0.037
 C          20.825     -12.776       0.515
 C          20.349       1.027       0.049
 C          20.146     -13.985       0.499
 C          21.025      -0.206       0.161
 C           9.977      -6.361       0.037
 C          10.011      -3.844      -0.272
 C          10.038      -1.323      -0.133
 C           9.324      -2.560      -0.207
 C           9.304      -5.109      -0.103
 C           9.260      -7.592       0.227
 C           9.353      -0.060      -0.030
