   142
 frame    337
 H          22.172       4.851      -0.067
 H          20.938       7.032      -0.099
 H          18.753       8.311      -0.074
 H          14.063       9.635      -0.055
 H          16.571       9.603      -0.037
 H           9.637       7.173      -0.196
 H           8.348       5.026      -0.217
 H          11.850       8.399      -0.126
 H           8.142     -10.125       0.251
 H           8.313       2.496      -0.186
 H           8.113     -12.652       0.384
 H           9.346     -14.828       0.525
 H          11.529     -16.106       0.629
 H          16.217     -17.428       0.736
 H          13.711     -17.396       0.717
 H          20.647     -14.970       0.637
 H          22.082      -2.727       0.249
 H          22.049      -5.248       0.355
 H          22.011      -7.770       0.426
 H          21.972     -10.296       0.489
 H          22.143       2.322       0.013
 H          21.936     -12.823       0.564
 H          18.431     -16.193       0.686
 H          22.114      -0.204       0.122
 H           8.238      -2.554      -0.062
 H           8.203      -5.077       0.031
 H           8.170      -7.600       0.134
 H           8.273      -0.032      -0.137
 C          18.885       3.604      -0.291
 C          20.330       3.582      -0.029
 C          21.054       4.889      -0.031
 C          16.735       4.900      -0.684
 C          18.195       4.884      -0.433
 C          18.920       6.161      -0.265
 C          20.392       6.099      -0.081
 C          12.325       4.960      -0.498
 C          13.791       4.938      -0.714
 C          14.534       6.213      -0.726
 C          16.031       6.193      -0.702
 C          16.792       7.436      -0.520
 C          18.213       7.385      -0.352
 C          11.626       6.259      -0.337
 C          12.374       7.465      -0.407
 C          13.803       7.474      -0.542
 C          14.607       8.679      -0.288
 C          16.012       8.653      -0.270
 C           9.461       5.029      -0.143
 C          10.156       6.227      -0.165
 C          13.629      -7.677      -0.218
 C          12.158      -7.647      -0.091
 C          11.428      -8.915      -0.095
 C           9.962      -8.917      -0.004
 C          11.532      -1.351      -0.399
 C           9.265     -10.158       0.256
 C          15.832      -8.962      -0.270
 C          14.334      -8.950      -0.294
 C          15.913      -1.415      -0.362
 C          13.598     -10.213      -0.239
 C          14.456      -1.404      -0.399
 C          12.150     -10.178      -0.104
 C          13.725      -2.642      -0.454
 C          11.602       3.694      -0.394
 C          11.409     -11.430       0.074
 C          12.275      -2.625      -0.467
 C          10.155       3.706      -0.158
 C           9.952     -11.383       0.323
 C          11.550      -3.878      -0.439
 C           9.433       2.498      -0.183
 C           9.226     -12.682       0.411
 C          20.334      -1.438      -0.197
 C          17.979     -10.249       0.003
 C          18.826      -1.443      -0.250
 C          16.531     -10.249      -0.192
 C          18.057      -2.699      -0.340
 C          15.976       3.645      -0.692
 C          15.778     -11.497      -0.219
 C          16.607      -2.678      -0.379
 C          14.519       3.670      -0.700
 C          14.312     -11.485      -0.245
 C          13.773       2.414      -0.642
 C          13.562     -12.736      -0.184
 C          15.879      -3.941      -0.245
 C          14.416      -3.923      -0.290
 C          12.318       2.423      -0.501
 C          12.101     -12.717       0.044
 C          13.689      -5.177      -0.383
 C          11.567       1.186      -0.413
 C          11.351     -13.974       0.301
 C          12.234      -5.143      -0.383
 C          10.103       1.232      -0.342
 C           9.882     -13.893       0.464
 C          20.990      -2.725       0.046
 C          18.678     -11.518       0.196
 C          20.253      -3.978      -0.040
 C          18.142       2.347      -0.402
 C          17.955     -12.791       0.128
 C          18.747      -3.967      -0.279
 C          16.693       2.370      -0.575
 C          16.499     -12.770      -0.145
 C          18.025      -5.216      -0.250
 C          15.966       1.097      -0.574
 C          15.762     -14.042      -0.108
 C          16.574      -5.214      -0.293
 C          14.469       1.123      -0.615
 C          14.271     -14.029      -0.131
 C          15.845      -6.446      -0.184
 C          13.728      -0.132      -0.464
 C          13.507     -15.252       0.117
 C          14.386      -6.433      -0.225
 C          12.268      -0.100      -0.320
 C          12.073     -15.192       0.285
 C          20.958      -5.235       0.135
 C          18.864       1.093      -0.285
 C          18.667     -14.063       0.368
 C          20.270      -6.513      -0.020
 C          18.130      -0.170      -0.218
 C          17.921     -15.267       0.331
 C          18.772      -6.468      -0.075
 C          16.671      -0.166      -0.395
 C          16.487     -15.289       0.151
 C          18.031      -7.715       0.036
 C          15.683     -16.485       0.453
 C          16.573      -7.716      -0.142
 C          14.277     -16.470       0.446
 C          20.933      -7.805       0.162
 C          20.192      -9.046       0.195
 C          18.731      -9.002       0.058
 C          20.854     -10.309       0.455
 C          20.127     -11.512       0.484
 C          11.462      -6.386      -0.244
 C          21.023       2.356      -0.007
 C          20.821     -12.831       0.570
 C          20.323       1.106      -0.179
 C          20.130     -14.021       0.587
 C          21.029      -0.156      -0.130
 C           9.952      -6.392      -0.247
 C          10.043      -3.852      -0.267
 C          10.028      -1.304      -0.412
 C           9.345      -2.579      -0.218
 C           9.303      -5.093      -0.139
 C           9.256      -7.667      -0.094
 C           9.364      -0.007      -0.366
