   142
 frame     56
 H          22.172       4.851      -0.067
 H          20.938       7.032      -0.099
 H          18.753       8.311      -0.074
 H          14.063       9.635      -0.055
 H          16.571       9.603      -0.037
 H           9.637       7.173      -0.196
 H           8.348       5.026      -0.217
 H          11.850       8.399      -0.126
 H           8.142     -10.125       0.251
 H           8.313       2.496      -0.186
 H           8.113     -12.652       0.384
 H           9.346     -14.828       0.525
 H          11.529     -16.106       0.629
 H          16.217     -17.428       0.736
 H          13.711     -17.396       0.717
 H          20.647     -14.970       0.637
 H          22.082      -2.727       0.249
 H          22.049      -5.248       0.355
 H          22.011      -7.770       0.426
 H          21.972     -10.296       0.489
 H          22.143       2.322       0.013
 H          21.936     -12.823       0.564
 H          18.431     -16.193       0.686
 H          22.114      -0.204       0.122
 H           8.238      -2.554      -0.062
 H           8.203      -5.077       0.031
 H           8.170      -7.600       0.134
 H           8.273      -0.032      -0.137
 C          18.890       3.600      -0.038
 C          20.356       3.569      -0.016
 C          21.062       4.857      -0.055
 C          16.719       4.877      -0.068
 C          18.170       4.854      -0.044
 C          18.905       6.114      -0.064
 C          20.380       6.063      -0.078
 C          12.346       4.929      -0.111
 C          13.799       4.916      -0.103
 C          14.545       6.158      -0.081
 C          16.002       6.139      -0.066
 C          16.750       7.389      -0.064
 C          18.191       7.346      -0.072
 C          11.643       6.206      -0.133
 C          12.387       7.420      -0.120
 C          13.829       7.427      -0.088
 C          14.607       8.666      -0.067
 C          16.003       8.647      -0.057
 C           9.456       5.003      -0.182
 C          10.168       6.191      -0.176
 C          13.643      -7.578       0.376
 C          12.165      -7.607       0.417
 C          11.437      -8.868       0.284
 C           9.955      -8.865       0.200
 C          11.546      -1.359       0.050
 C           9.242     -10.139       0.273
 C          15.798      -8.886       0.549
 C          14.339      -8.865       0.523
 C          15.922      -1.443      -0.228
 C          13.611     -10.133       0.388
 C          14.435      -1.432      -0.246
 C          12.143     -10.134       0.305
 C          13.689      -2.620      -0.463
 C          11.596       3.698      -0.137
 C          11.405     -11.391       0.389
 C          12.262      -2.628      -0.101
 C          10.129       3.702      -0.150
 C           9.934     -11.370       0.374
 C          11.479      -3.853      -0.002
 C           9.403       2.490      -0.171
 C           9.223     -12.659       0.416
 C          20.279      -1.454       0.235
 C          17.974     -10.202       0.407
 C          18.799      -1.444       0.201
 C          16.507     -10.169       0.441
 C          18.061      -2.696       0.031
 C          15.974       3.623      -0.097
 C          15.773     -11.426       0.435
 C          16.637      -2.664      -0.394
 C          14.514       3.641      -0.113
 C          14.315     -11.410       0.412
 C          13.776       2.379      -0.065
 C          13.570     -12.665       0.491
 C          15.887      -3.933      -0.445
 C          14.427      -3.920      -0.467
 C          12.304       2.419      -0.145
 C          12.116     -12.647       0.483
 C          13.651      -5.175      -0.369
 C          11.565       1.169      -0.084
 C          11.378     -13.914       0.525
 C          12.224      -5.099      -0.006
 C          10.079       1.197      -0.164
 C           9.904     -13.863       0.486
 C          20.956      -2.716       0.295
 C          18.678     -11.479       0.499
 C          20.247      -3.957       0.387
 C          18.150       2.342      -0.061
 C          17.934     -12.721       0.560
 C          18.799      -3.942       0.167
 C          16.673       2.338      -0.033
 C          16.482     -12.700       0.529
 C          18.032      -5.177       0.111
 C          15.932       1.081       0.159
 C          15.738     -13.948       0.587
 C          16.607      -5.211      -0.299
 C          14.474       1.098       0.134
 C          14.280     -13.930       0.571
 C          15.852      -6.394      -0.047
 C          13.740      -0.172       0.082
 C          13.532     -15.184       0.615
 C          14.373      -6.377      -0.078
 C          12.272      -0.101       0.124
 C          12.091     -15.145       0.589
 C          20.920      -5.215       0.405
 C          18.850       1.071       0.023
 C          18.640     -14.006       0.606
 C          20.217      -6.468       0.452
 C          18.096      -0.176       0.220
 C          17.895     -15.218       0.644
 C          18.744      -6.437       0.385
 C          16.627      -0.208       0.156
 C          16.452     -15.221       0.642
 C          17.999      -7.683       0.533
 C          15.674     -16.460       0.688
 C          16.529      -7.620       0.428
 C          14.279     -16.442       0.678
 C          20.900      -7.743       0.427
 C          20.188      -8.984       0.397
 C          18.708      -8.954       0.426
 C          20.869     -10.277       0.473
 C          20.150     -11.496       0.530
 C          11.472      -6.339       0.239
 C          21.049       2.336       0.004
 C          20.826     -12.806       0.569
 C          20.339       1.062       0.008
 C          20.115     -13.993       0.602
 C          21.001      -0.208       0.113
 C           9.995      -6.340       0.228
 C          10.027      -3.828       0.177
 C          10.072      -1.326       0.044
 C           9.362      -2.570       0.056
 C           9.327      -5.074       0.149
 C           9.280      -7.603       0.180
 C           9.385      -0.058      -0.096
