   142
 frame    924
 H          22.172       4.851      -0.067
 H          20.938       7.032      -0.099
 H          18.753       8.311      -0.074
 H          14.063       9.635      -0.055
 H          16.571       9.603      -0.037
 H           9.637       7.173      -0.196
 H           8.348       5.026      -0.217
 H          11.850       8.399      -0.126
 H           8.142     -10.125       0.251
 H           8.313       2.496      -0.186
 H           8.113     -12.652       0.384
 H           9.346     -14.828       0.525
 H          11.529     -16.106       0.629
 H          16.217     -17.428       0.736
 H          13.711     -17.396       0.717
 H          20.647     -14.970       0.637
 H          22.082      -2.727       0.249
 H          22.049      -5.248       0.355
 H          22.011      -7.770       0.426
 H          21.972     -10.296       0.489
 H          22.143       2.322       0.013
 H          21.936     -12.823       0.564
 H          18.431     -16.193       0.686
 H          22.114      -0.204       0.122
 H           8.238      -2.554      -0.062
 H           8.203      -5.077       0.031
 H           8.170      -7.600       0.134
 H           8.273      -0.032      -0.137
 C          18.889       3.623       0.174
 C          20.372       3.600       0.125
 C          21.063       4.899      -0.011
 C          16.697       4.859       0.001
 C          18.146       4.872       0.150
 C          18.865       6.147       0.078
 C          20.355       6.089      -0.029
 C          12.363       4.944       0.073
 C          13.828       4.884      -0.022
 C          14.547       6.156      -0.214
 C          15.998       6.149      -0.192
 C          16.733       7.414      -0.082
 C          18.152       7.375      -0.026
 C          11.682       6.234      -0.003
 C          12.431       7.440      -0.087
 C          13.847       7.446      -0.104
 C          14.611       8.678      -0.078
 C          16.002       8.650      -0.060
 C           9.460       5.046      -0.139
 C          10.195       6.215      -0.142
 C          13.649      -7.621       0.801
 C          12.204      -7.628       0.785
 C          11.405      -8.844       0.629
 C           9.943      -8.852       0.528
 C          11.562      -1.284       0.607
 C           9.220     -10.156       0.455
 C          15.801      -8.929       0.732
 C          14.332      -8.905       0.706
 C          15.895      -1.426       0.777
 C          13.556     -10.115       0.583
 C          14.430      -1.403       0.750
 C          12.093     -10.133       0.537
 C          13.712      -2.621       1.072
 C          11.594       3.708       0.060
 C          11.384     -11.396       0.584
 C          12.250      -2.556       0.835
 C          10.120       3.726      -0.019
 C           9.918     -11.382       0.506
 C          11.463      -3.826       0.765
 C           9.388       2.520       0.027
 C           9.225     -12.687       0.477
 C          20.252      -1.423       0.549
 C          18.008     -10.199       0.606
 C          18.766      -1.372       0.757
 C          16.549     -10.146       0.619
 C          18.047      -2.630       0.962
 C          15.982       3.569       0.043
 C          15.781     -11.370       0.544
 C          16.576      -2.670       1.117
 C          14.503       3.590       0.030
 C          14.301     -11.353       0.531
 C          13.723       2.379       0.144
 C          13.585     -12.634       0.551
 C          15.839      -3.866       1.479
 C          14.396      -3.849       1.460
 C          12.267       2.427       0.091
 C          12.132     -12.644       0.664
 C          13.672      -5.070       1.141
 C          11.548       1.172       0.284
 C          11.411     -13.923       0.683
 C          12.207      -5.106       0.930
 C          10.084       1.209       0.162
 C           9.924     -13.883       0.543
 C          20.963      -2.679       0.585
 C          18.683     -11.480       0.683
 C          20.269      -3.935       0.797
 C          18.185       2.350       0.176
 C          17.914     -12.722       0.744
 C          18.803      -3.915       0.933
 C          16.727       2.334       0.169
 C          16.467     -12.671       0.570
 C          18.016      -5.181       1.048
 C          15.943       1.138       0.382
 C          15.734     -13.958       0.437
 C          16.539      -5.105       1.186
 C          14.465       1.158       0.359
 C          14.282     -13.937       0.432
 C          15.828      -6.355       0.937
 C          13.760      -0.109       0.535
 C          13.544     -15.203       0.589
 C          14.359      -6.332       0.902
 C          12.304      -0.056       0.527
 C          12.124     -15.155       0.637
 C          20.930      -5.218       0.673
 C          18.867       1.078       0.411
 C          18.594     -14.016       0.765
 C          20.182      -6.471       0.741
 C          18.065      -0.133       0.631
 C          17.855     -15.230       0.686
 C          18.690      -6.471       0.944
 C          16.612      -0.143       0.582
 C          16.439     -15.241       0.609
 C          17.958      -7.705       0.918
 C          15.671     -16.471       0.664
 C          16.511      -7.658       0.859
 C          14.277     -16.450       0.654
 C          20.915      -7.728       0.634
 C          20.197      -8.973       0.718
 C          18.726      -8.932       0.758
 C          20.886     -10.293       0.664
 C          20.159     -11.507       0.663
 C          11.501      -6.377       0.795
 C          21.055       2.370       0.198
 C          20.824     -12.834       0.624
 C          20.326       1.077       0.340
 C          20.090     -14.012       0.656
 C          21.011      -0.190       0.355
 C          10.023      -6.345       0.521
 C          10.000      -3.815       0.565
 C          10.089      -1.297       0.344
 C           9.334      -2.537       0.329
 C           9.309      -5.078       0.420
 C           9.265      -7.588       0.401
 C           9.375      -0.040       0.110
