   142
 frame    468
 H          22.172       4.851      -0.067
 H          20.938       7.032      -0.099
 H          18.753       8.311      -0.074
 H          14.063       9.635      -0.055
 H          16.571       9.603      -0.037
 H           9.637       7.173      -0.196
 H           8.348       5.026      -0.217
 H          11.850       8.399      -0.126
 H           8.142     -10.125       0.251
 H           8.313       2.496      -0.186
 H           8.113     -12.652       0.384
 H           9.346     -14.828       0.525
 H          11.529     -16.106       0.629
 H          16.217     -17.428       0.736
 H          13.711     -17.396       0.717
 H          20.647     -14.970       0.637
 H          22.082      -2.727       0.249
 H          22.049      -5.248       0.355
 H          22.011      -7.770       0.426
 H          21.972     -10.296       0.489
 H          22.143       2.322       0.013
 H          21.936     -12.823       0.564
 H          18.431     -16.193       0.686
 H          22.114      -0.204       0.122
 H           8.238      -2.554      -0.062
 H           8.203      -5.077       0.031
 H           8.170      -7.600       0.134
 H           8.273      -0.032      -0.137
 C          18.895       3.622      -0.500
 C          20.395       3.587      -0.402
 C          21.102       4.877      -0.246
 C          16.711       4.879      -0.478
 C          18.184       4.892      -0.431
 C          18.937       6.133      -0.157
 C          20.397       6.066      -0.097
 C          12.342       4.974      -0.499
 C          13.819       4.919      -0.514
 C          14.544       6.143      -0.352
 C          16.000       6.124      -0.325
 C          16.743       7.375      -0.109
 C          18.188       7.350      -0.050
 C          11.621       6.235      -0.222
 C          12.396       7.430      -0.099
 C          13.835       7.417      -0.133
 C          14.610       8.649      -0.094
 C          16.007       8.630      -0.070
 C           9.415       5.030      -0.358
 C          10.147       6.193      -0.184
 C          13.655      -7.673      -0.269
 C          12.192      -7.653      -0.188
 C          11.441      -8.895      -0.128
 C           9.984      -8.882       0.058
 C          11.571      -1.337      -0.189
 C           9.255     -10.142       0.085
 C          15.823      -8.972      -0.196
 C          14.349      -8.958      -0.223
 C          15.909      -1.401      -0.220
 C          13.577     -10.206      -0.173
 C          14.445      -1.379      -0.246
 C          12.124     -10.175      -0.122
 C          13.701      -2.628      -0.132
 C          11.604       3.723      -0.597
 C          11.406     -11.457      -0.093
 C          12.248      -2.600       0.045
 C          10.105       3.718      -0.531
 C           9.905     -11.411      -0.012
 C          11.502      -3.856       0.152
 C           9.424       2.472      -0.349
 C           9.190     -12.693       0.240
 C          20.275      -1.446       0.162
 C          18.008     -10.243      -0.030
 C          18.779      -1.430      -0.037
 C          16.562     -10.241      -0.143
 C          18.066      -2.672       0.157
 C          15.981       3.616      -0.552
 C          15.786     -11.468      -0.099
 C          16.615      -2.671      -0.065
 C          14.516       3.639      -0.581
 C          14.310     -11.444      -0.122
 C          13.747       2.410      -0.574
 C          13.588     -12.717       0.013
 C          15.883      -3.917      -0.035
 C          14.404      -3.895      -0.065
 C          12.294       2.427      -0.525
 C          12.113     -12.732       0.057
 C          13.671      -5.147      -0.070
 C          11.568       1.162      -0.457
 C          11.360     -13.958       0.429
 C          12.216      -5.137       0.117
 C          10.107       1.195      -0.293
 C           9.894     -13.870       0.471
 C          20.966      -2.709       0.354
 C          18.690     -11.543      -0.001
 C          20.225      -3.959       0.408
 C          18.169       2.348      -0.438
 C          17.948     -12.798       0.129
 C          18.770      -3.950       0.314
 C          16.718       2.371      -0.520
 C          16.475     -12.747       0.055
 C          18.023      -5.202       0.239
 C          15.953       1.124      -0.515
 C          15.739     -13.967       0.278
 C          16.574      -5.177       0.001
 C          14.482       1.141      -0.534
 C          14.285     -13.950       0.264
 C          15.843      -6.428      -0.071
 C          13.749      -0.126      -0.503
 C          13.535     -15.188       0.537
 C          14.384      -6.414      -0.097
 C          12.289      -0.099      -0.429
 C          12.095     -15.165       0.603
 C          20.924      -5.229       0.450
 C          18.860       1.073      -0.318
 C          18.666     -14.051       0.495
 C          20.206      -6.484       0.343
 C          18.102      -0.171      -0.320
 C          17.893     -15.234       0.648
 C          18.718      -6.482       0.114
 C          16.642      -0.168      -0.449
 C          16.447     -15.220       0.569
 C          18.005      -7.730      -0.078
 C          15.681     -16.443       0.654
 C          16.543      -7.699      -0.214
 C          14.280     -16.426       0.642
 C          20.898      -7.780       0.372
 C          20.171      -9.006       0.240
 C          18.717      -8.981       0.021
 C          20.866     -10.288       0.271
 C          20.190     -11.533       0.137
 C          11.495      -6.390      -0.028
 C          21.034       2.324      -0.183
 C          20.863     -12.835       0.401
 C          20.317       1.068      -0.111
 C          20.124     -13.997       0.584
 C          21.003      -0.179       0.103
 C          10.006      -6.360       0.134
 C          10.045      -3.832       0.190
 C          10.074      -1.321      -0.023
 C           9.344      -2.563       0.109
 C           9.316      -5.087       0.192
 C           9.284      -7.636       0.140
 C           9.381      -0.030      -0.111
