   142
 frame    105
 H          22.172       4.851      -0.067
 H          20.938       7.032      -0.099
 H          18.753       8.311      -0.074
 H          14.063       9.635      -0.055
 H          16.571       9.603      -0.037
 H           9.637       7.173      -0.196
 H           8.348       5.026      -0.217
 H          11.850       8.399      -0.126
 H           8.142     -10.125       0.251
 H           8.313       2.496      -0.186
 H           8.113     -12.652       0.384
 H           9.346     -14.828       0.525
 H          11.529     -16.106       0.629
 H          16.217     -17.428       0.736
 H          13.711     -17.396       0.717
 H          20.647     -14.970       0.637
 H          22.082      -2.727       0.249
 H          22.049      -5.248       0.355
 H          22.011      -7.770       0.426
 H          21.972     -10.296       0.489
 H          22.143       2.322       0.013
 H          21.936     -12.823       0.564
 H          18.431     -16.193       0.686
 H          22.114      -0.204       0.122
 H           8.238      -2.554      -0.062
 H           8.203      -5.077       0.031
 H           8.170      -7.600       0.134
 H           8.273      -0.032      -0.137
 C          18.889       3.586       0.082
 C          20.362       3.563      -0.064
 C          21.073       4.871      -0.154
 C          16.705       4.871      -0.013
 C          18.160       4.841      -0.094
 C          18.913       6.118      -0.144
 C          20.397       6.076      -0.104
 C          12.354       4.913      -0.150
 C          13.810       4.899      -0.049
 C          14.542       6.163      -0.133
 C          16.003       6.145      -0.120
 C          16.755       7.397      -0.102
 C          18.199       7.352      -0.084
 C          11.630       6.209      -0.214
 C          12.375       7.424      -0.138
 C          13.819       7.436      -0.125
 C          14.607       8.667      -0.067
 C          16.004       8.648      -0.056
 C           9.448       5.013      -0.286
 C          10.149       6.201      -0.216
 C          13.635      -7.675      -0.134
 C          12.156      -7.677      -0.045
 C          11.429      -8.873       0.323
 C           9.951      -8.844       0.404
 C          11.533      -1.335      -0.325
 C           9.233     -10.128       0.392
 C          15.809      -8.959       0.106
 C          14.352      -8.943       0.080
 C          15.939      -1.429      -0.341
 C          13.614     -10.136       0.489
 C          14.422      -1.410      -0.357
 C          12.135     -10.107       0.559
 C          13.704      -2.642      -0.537
 C          11.599       3.669      -0.011
 C          11.390     -11.381       0.518
 C          12.222      -2.609      -0.331
 C          10.126       3.690      -0.180
 C           9.922     -11.371       0.338
 C          11.481      -3.873      -0.269
 C           9.404       2.471      -0.050
 C           9.214     -12.668       0.308
 C          20.298      -1.447       0.037
 C          17.976     -10.189       0.651
 C          18.843      -1.422      -0.191
 C          16.503     -10.172       0.539
 C          18.121      -2.681      -0.222
 C          15.968       3.618       0.148
 C          15.766     -11.430       0.681
 C          16.637      -2.677      -0.454
 C          14.518       3.633       0.125
 C          14.313     -11.411       0.659
 C          13.784       2.371       0.044
 C          13.567     -12.664       0.552
 C          15.873      -3.934      -0.530
 C          14.439      -3.919      -0.553
 C          12.306       2.386       0.104
 C          12.112     -12.648       0.441
 C          13.673      -5.157      -0.428
 C          11.556       1.166      -0.038
 C          11.366     -13.917       0.437
 C          12.184      -5.140      -0.240
 C          10.085       1.172       0.043
 C           9.888     -13.866       0.447
 C          20.956      -2.719       0.079
 C          18.689     -11.478       0.630
 C          20.279      -3.982      -0.007
 C          18.146       2.323       0.208
 C          17.935     -12.723       0.523
 C          18.825      -3.959      -0.121
 C          16.671       2.338       0.080
 C          16.480     -12.704       0.590
 C          18.085      -5.217      -0.131
 C          15.946       1.119      -0.259
 C          15.736     -13.954       0.533
 C          16.603      -5.198      -0.362
 C          14.489       1.137      -0.284
 C          14.275     -13.937       0.517
 C          15.864      -6.416      -0.140
 C          13.724      -0.118      -0.406
 C          13.524     -15.191       0.575
 C          14.366      -6.399      -0.178
 C          12.256      -0.065      -0.316
 C          12.081     -15.144       0.571
 C          20.929      -5.236       0.166
 C          18.869       1.080       0.083
 C          18.646     -14.008       0.523
 C          20.225      -6.489       0.240
 C          18.145      -0.138      -0.227
 C          17.899     -15.214       0.627
 C          18.782      -6.489       0.003
 C          16.682      -0.149      -0.344
 C          16.456     -15.223       0.604
 C          18.030      -7.745       0.083
 C          15.675     -16.457       0.689
 C          16.567      -7.718      -0.080
 C          14.278     -16.441       0.678
 C          20.906      -7.735       0.523
 C          20.194      -8.978       0.585
 C          18.721      -8.961       0.459
 C          20.879     -10.276       0.595
 C          20.162     -11.500       0.500
 C          11.464      -6.399      -0.152
 C          21.047       2.326       0.107
 C          20.834     -12.812       0.464
 C          20.335       1.052       0.219
 C          20.122     -13.993       0.563
 C          21.013      -0.210       0.233
 C           9.999      -6.363       0.012
 C          10.017      -3.851      -0.240
 C          10.070      -1.324      -0.177
 C           9.367      -2.576      -0.201
 C           9.327      -5.099      -0.102
 C           9.265      -7.594       0.295
 C           9.369      -0.069       0.013
