   142
 frame     46
 H          22.172       4.851      -0.067
 H          20.938       7.032      -0.099
 H          18.753       8.311      -0.074
 H          14.063       9.635      -0.055
 H          16.571       9.603      -0.037
 H           9.637       7.173      -0.196
 H           8.348       5.026      -0.217
 H          11.850       8.399      -0.126
 H           8.142     -10.125       0.251
 H           8.313       2.496      -0.186
 H           8.113     -12.652       0.384
 H           9.346     -14.828       0.525
 H          11.529     -16.106       0.629
 H          16.217     -17.428       0.736
 H          13.711     -17.396       0.717
 H          20.647     -14.970       0.637
 H          22.082      -2.727       0.249
 H          22.049      -5.248       0.355
 H          22.011      -7.770       0.426
 H          21.972     -10.296       0.489
 H          22.143       2.322       0.013
 H          21.936     -12.823       0.564
 H          18.431     -16.193       0.686
 H          22.114      -0.204       0.122
 H           8.238      -2.554      -0.062
 H           8.203      -5.077       0.031
 H           8.170      -7.600       0.134
 H           8.273      -0.032      -0.137
 C          18.874       3.583      -0.024
 C          20.346       3.563      -0.022
 C          21.061       4.862      -0.061
 C          16.712       4.867      -0.057
 C          18.166       4.844      -0.050
 C          18.905       6.119      -0.070
 C          20.382       6.070      -0.078
 C          12.350       4.918      -0.115
 C          13.804       4.904      -0.091
 C          14.546       6.153      -0.082
 C          16.002       6.133      -0.068
 C          16.748       7.390      -0.067
 C          18.191       7.353      -0.072
 C          11.644       6.210      -0.139
 C          12.387       7.426      -0.119
 C          13.830       7.427      -0.090
 C          14.607       8.667      -0.067
 C          16.003       8.650      -0.057
 C           9.459       5.007      -0.187
 C          10.168       6.197      -0.177
 C          13.629      -7.608       0.474
 C          12.171      -7.615       0.324
 C          11.431      -8.880       0.243
 C           9.962      -8.869       0.221
 C          11.529      -1.341       0.096
 C           9.253     -10.128       0.289
 C          15.805      -8.907       0.460
 C          14.344      -8.889       0.431
 C          15.901      -1.439       0.016
 C          13.607     -10.150       0.351
 C          14.439      -1.415      -0.043
 C          12.147     -10.138       0.334
 C          13.712      -2.688      -0.300
 C          11.609       3.674      -0.120
 C          11.408     -11.385       0.407
 C          12.247      -2.624       0.006
 C          10.139       3.690      -0.153
 C           9.937     -11.367       0.369
 C          11.502      -3.842       0.156
 C           9.420       2.471      -0.155
 C           9.222     -12.664       0.410
 C          20.296      -1.453       0.198
 C          17.973     -10.209       0.435
 C          18.813      -1.435       0.229
 C          16.512     -10.184       0.403
 C          18.056      -2.694       0.153
 C          15.971       3.621      -0.076
 C          15.771     -11.431       0.455
 C          16.628      -2.706      -0.236
 C          14.515       3.643      -0.097
 C          14.314     -11.413       0.433
 C          13.768       2.403      -0.102
 C          13.571     -12.663       0.503
 C          15.887      -3.943      -0.608
 C          14.422      -3.918      -0.658
 C          12.309       2.419      -0.119
 C          12.116     -12.648       0.479
 C          13.674      -5.102      -0.205
 C          11.555       1.182      -0.126
 C          11.376     -13.920       0.519
 C          12.204      -5.098       0.102
 C          10.089       1.194      -0.143
 C           9.901     -13.869       0.486
 C          20.985      -2.718       0.222
 C          18.676     -11.477       0.517
 C          20.260      -3.959       0.370
 C          18.144       2.340      -0.030
 C          17.935     -12.721       0.555
 C          18.767      -3.939       0.303
 C          16.688       2.366      -0.065
 C          16.479     -12.701       0.541
 C          18.049      -5.176       0.214
 C          15.942       1.107       0.063
 C          15.737     -13.951       0.585
 C          16.594      -5.142      -0.139
 C          14.473       1.128       0.051
 C          14.280     -13.932       0.569
 C          15.843      -6.391       0.175
 C          13.732      -0.135       0.172
 C          13.533     -15.188       0.613
 C          14.366      -6.364       0.151
 C          12.260      -0.095       0.038
 C          12.092     -15.151       0.590
 C          20.946      -5.237       0.328
 C          18.863       1.083      -0.010
 C          18.641     -14.012       0.600
 C          20.217      -6.472       0.420
 C          18.116      -0.174       0.125
 C          17.894     -15.224       0.644
 C          18.739      -6.446       0.437
 C          16.639      -0.176       0.229
 C          16.453     -15.224       0.639
 C          18.005      -7.682       0.446
 C          15.673     -16.462       0.689
 C          16.540      -7.640       0.527
 C          14.279     -16.445       0.677
 C          20.896      -7.748       0.400
 C          20.186      -8.992       0.418
 C          18.715      -8.964       0.385
 C          20.862     -10.274       0.489
 C          20.148     -11.496       0.525
 C          11.464      -6.356       0.284
 C          21.033       2.325       0.016
 C          20.828     -12.810       0.563
 C          20.329       1.061       0.031
 C          20.117     -13.997       0.601
 C          21.008      -0.196       0.095
 C           9.987      -6.350       0.193
 C          10.005      -3.832       0.155
 C          10.046      -1.321       0.005
 C           9.327      -2.568      -0.034
 C           9.298      -5.094       0.061
 C           9.282      -7.609       0.155
 C           9.378      -0.046      -0.122
