   142
 frame    483
 H          22.172       4.851      -0.067
 H          20.938       7.032      -0.099
 H          18.753       8.311      -0.074
 H          14.063       9.635      -0.055
 H          16.571       9.603      -0.037
 H           9.637       7.173      -0.196
 H           8.348       5.026      -0.217
 H          11.850       8.399      -0.126
 H           8.142     -10.125       0.251
 H           8.313       2.496      -0.186
 H           8.113     -12.652       0.384
 H           9.346     -14.828       0.525
 H          11.529     -16.106       0.629
 H          16.217     -17.428       0.736
 H          13.711     -17.396       0.717
 H          20.647     -14.970       0.637
 H          22.082      -2.727       0.249
 H          22.049      -5.248       0.355
 H          22.011      -7.770       0.426
 H          21.972     -10.296       0.489
 H          22.143       2.322       0.013
 H          21.936     -12.823       0.564
 H          18.431     -16.193       0.686
 H          22.114      -0.204       0.122
 H           8.238      -2.554      -0.062
 H           8.203      -5.077       0.031
 H           8.170      -7.600       0.134
 H           8.273      -0.032      -0.137
 C          18.905       3.591      -0.427
 C          20.343       3.561      -0.207
 C          21.058       4.863      -0.165
 C          16.746       4.866      -0.298
 C          18.196       4.844      -0.350
 C          18.903       6.123      -0.215
 C          20.381       6.073      -0.178
 C          12.320       4.920      -0.420
 C          13.768       4.901      -0.333
 C          14.540       6.168      -0.292
 C          16.016       6.147      -0.283
 C          16.745       7.409      -0.205
 C          18.179       7.359      -0.123
 C          11.646       6.212      -0.283
 C          12.401       7.430      -0.178
 C          13.841       7.446      -0.240
 C          14.618       8.693      -0.124
 C          15.994       8.675      -0.120
 C           9.473       5.010      -0.268
 C          10.178       6.203      -0.257
 C          13.644      -7.686      -0.252
 C          12.177      -7.649      -0.039
 C          11.454      -8.906       0.067
 C           9.959      -8.868       0.148
 C          11.483      -1.332      -0.101
 C           9.252     -10.144       0.234
 C          15.808      -8.981      -0.302
 C          14.355      -8.967      -0.322
 C          15.920      -1.412      -0.354
 C          13.606     -10.206      -0.198
 C          14.446      -1.396      -0.391
 C          12.120     -10.190      -0.166
 C          13.690      -2.612      -0.029
 C          11.587       3.685      -0.519
 C          11.381     -11.431      -0.031
 C          12.197      -2.615      -0.047
 C          10.139       3.701      -0.348
 C           9.947     -11.383       0.199
 C          11.473      -3.852       0.127
 C           9.417       2.488      -0.214
 C           9.235     -12.664       0.325
 C          20.320      -1.451       0.096
 C          18.015     -10.259      -0.070
 C          18.870      -1.422       0.034
 C          16.518     -10.241      -0.151
 C          18.119      -2.686       0.079
 C          15.987       3.629      -0.437
 C          15.784     -11.462       0.034
 C          16.628      -2.649       0.033
 C          14.508       3.646      -0.450
 C          14.315     -11.456       0.013
 C          13.773       2.416      -0.601
 C          13.537     -12.680       0.207
 C          15.872      -3.918       0.194
 C          14.401      -3.901       0.158
 C          12.293       2.423      -0.575
 C          12.092     -12.668       0.144
 C          13.646      -5.170       0.040
 C          11.595       1.181      -0.268
 C          11.379     -13.924       0.367
 C          12.158      -5.123       0.042
 C          10.103       1.197      -0.189
 C           9.901     -13.879       0.389
 C          20.992      -2.708       0.306
 C          18.720     -11.519       0.074
 C          20.311      -3.963       0.345
 C          18.173       2.344      -0.472
 C          17.970     -12.742       0.208
 C          18.814      -3.942       0.260
 C          16.691       2.374      -0.548
 C          16.521     -12.717       0.243
 C          18.099      -5.195       0.150
 C          15.943       1.122      -0.619
 C          15.754     -13.976       0.314
 C          16.604      -5.205       0.097
 C          14.491       1.145      -0.661
 C          14.274     -13.956       0.301
 C          15.853      -6.442      -0.229
 C          13.745      -0.107      -0.486
 C          13.553     -15.214       0.445
 C          14.373      -6.423      -0.265
 C          12.277      -0.101      -0.275
 C          12.113     -15.156       0.514
 C          20.966      -5.235       0.395
 C          18.832       1.080      -0.153
 C          18.638     -14.014       0.443
 C          20.251      -6.481       0.267
 C          18.109      -0.179      -0.169
 C          17.874     -15.229       0.564
 C          18.800      -6.477       0.199
 C          16.653      -0.144      -0.433
 C          16.444     -15.254       0.474
 C          18.005      -7.712       0.085
 C          15.660     -16.500       0.635
 C          16.549      -7.727      -0.203
 C          14.288     -16.481       0.620
 C          20.920      -7.739       0.261
 C          20.195      -8.989       0.339
 C          18.703      -8.996       0.185
 C          20.871     -10.283       0.416
 C          20.144     -11.508       0.337
 C          11.423      -6.389       0.054
 C          21.037       2.340      -0.035
 C          20.822     -12.809       0.478
 C          20.314       1.053      -0.022
 C          20.119     -14.002       0.499
 C          21.017      -0.208      -0.020
 C           9.961      -6.357       0.040
 C           9.973      -3.838       0.115
 C          10.027      -1.320      -0.115
 C           9.323      -2.564       0.048
 C           9.282      -5.088       0.136
 C           9.263      -7.598       0.019
 C           9.373      -0.059      -0.238
