   142
 frame    183
 H          22.172       4.851      -0.067
 H          20.938       7.032      -0.099
 H          18.753       8.311      -0.074
 H          14.063       9.635      -0.055
 H          16.571       9.603      -0.037
 H           9.637       7.173      -0.196
 H           8.348       5.026      -0.217
 H          11.850       8.399      -0.126
 H           8.142     -10.125       0.251
 H           8.313       2.496      -0.186
 H           8.113     -12.652       0.384
 H           9.346     -14.828       0.525
 H          11.529     -16.106       0.629
 H          16.217     -17.428       0.736
 H          13.711     -17.396       0.717
 H          20.647     -14.970       0.637
 H          22.082      -2.727       0.249
 H          22.049      -5.248       0.355
 H          22.011      -7.770       0.426
 H          21.972     -10.296       0.489
 H          22.143       2.322       0.013
 H          21.936     -12.823       0.564
 H          18.431     -16.193       0.686
 H          22.114      -0.204       0.122
 H           8.238      -2.554      -0.062
 H           8.203      -5.077       0.031
 H           8.170      -7.600       0.134
 H           8.273      -0.032      -0.137
 C          18.900       3.603      -0.074
 C          20.366       3.587      -0.077
 C          21.067       4.887       0.036
 C          16.752       4.861      -0.116
 C          18.192       4.860       0.083
 C          18.916       6.128       0.286
 C          20.391       6.093       0.146
 C          12.326       4.930       0.022
 C          13.771       4.897      -0.124
 C          14.533       6.120      -0.058
 C          16.014       6.109      -0.048
 C          16.758       7.362       0.158
 C          18.202       7.362       0.233
 C          11.618       6.213       0.203
 C          12.366       7.432       0.194
 C          13.815       7.394       0.128
 C          14.600       8.651       0.080
 C          16.002       8.630       0.094
 C           9.448       5.028      -0.098
 C          10.154       6.214       0.043
 C          13.620      -7.652      -0.213
 C          12.157      -7.655      -0.365
 C          11.417      -8.911      -0.160
 C           9.931      -8.900      -0.061
 C          11.510      -1.378      -0.687
 C           9.245     -10.169       0.078
 C          15.813      -8.924       0.016
 C          14.350      -8.907      -0.015
 C          15.919      -1.438      -0.335
 C          13.617     -10.150       0.185
 C          14.454      -1.416      -0.368
 C          12.139     -10.165       0.126
 C          13.716      -2.669      -0.555
 C          11.589       3.697      -0.156
 C          11.387     -11.412       0.344
 C          12.239      -2.629      -0.612
 C          10.120       3.720      -0.212
 C           9.915     -11.396       0.294
 C          11.474      -3.883      -0.592
 C           9.416       2.494      -0.346
 C           9.212     -12.669       0.500
 C          20.298      -1.481      -0.203
 C          17.984     -10.231       0.227
 C          18.861      -1.482      -0.546
 C          16.507     -10.187       0.222
 C          18.099      -2.705      -0.505
 C          15.985       3.608      -0.154
 C          15.779     -11.434       0.358
 C          16.625      -2.710      -0.465
 C          14.512       3.626      -0.173
 C          14.309     -11.413       0.341
 C          13.787       2.374      -0.244
 C          13.553     -12.668       0.435
 C          15.894      -3.940      -0.520
 C          14.425      -3.924      -0.556
 C          12.304       2.417      -0.306
 C          12.096     -12.656       0.603
 C          13.685      -5.153      -0.465
 C          11.556       1.175      -0.498
 C          11.346     -13.906       0.865
 C          12.210      -5.149      -0.521
 C          10.073       1.199      -0.415
 C           9.886     -13.869       0.699
 C          20.990      -2.718      -0.032
 C          18.693     -11.503       0.463
 C          20.254      -3.974      -0.059
 C          18.158       2.340      -0.211
 C          17.951     -12.731       0.675
 C          18.833      -3.973      -0.436
 C          16.669       2.331      -0.194
 C          16.501     -12.710       0.480
 C          18.058      -5.219      -0.401
 C          15.942       1.093      -0.338
 C          15.745     -13.936       0.595
 C          16.589      -5.184      -0.390
 C          14.486       1.109      -0.357
 C          14.275     -13.913       0.574
 C          15.850      -6.418      -0.167
 C          13.722      -0.144      -0.488
 C          13.521     -15.146       0.834
 C          14.393      -6.398      -0.191
 C          12.256      -0.120      -0.611
 C          12.071     -15.139       0.905
 C          20.952      -5.245       0.073
 C          18.874       1.084      -0.374
 C          18.656     -14.004       0.939
 C          20.223      -6.478      -0.011
 C          18.146      -0.198      -0.512
 C          17.902     -15.220       0.959
 C          18.787      -6.470      -0.360
 C          16.681      -0.184      -0.419
 C          16.455     -15.191       0.860
 C          18.047      -7.719      -0.237
 C          15.672     -16.444       0.849
 C          16.576      -7.687      -0.151
 C          14.271     -16.426       0.838
 C          20.899      -7.761       0.214
 C          20.219      -9.021       0.140
 C          18.741      -9.002      -0.020
 C          20.878     -10.311       0.277
 C          20.165     -11.523       0.457
 C          11.452      -6.380      -0.517
 C          21.044       2.344      -0.189
 C          20.833     -12.817       0.665
 C          20.356       1.065      -0.249
 C          20.124     -14.003       0.812
 C          21.004      -0.198      -0.071
 C          10.006      -6.362      -0.231
 C          10.038      -3.851      -0.286
 C          10.062      -1.346      -0.403
 C           9.340      -2.569      -0.292
 C           9.310      -5.100      -0.196
 C           9.284      -7.622      -0.023
 C           9.390      -0.056      -0.293
