   142
 frame    947
 H          22.172       4.851      -0.067
 H          20.938       7.032      -0.099
 H          18.753       8.311      -0.074
 H          14.063       9.635      -0.055
 H          16.571       9.603      -0.037
 H           9.637       7.173      -0.196
 H           8.348       5.026      -0.217
 H          11.850       8.399      -0.126
 H           8.142     -10.125       0.251
 H           8.313       2.496      -0.186
 H           8.113     -12.652       0.384
 H           9.346     -14.828       0.525
 H          11.529     -16.106       0.629
 H          16.217     -17.428       0.736
 H          13.711     -17.396       0.717
 H          20.647     -14.970       0.637
 H          22.082      -2.727       0.249
 H          22.049      -5.248       0.355
 H          22.011      -7.770       0.426
 H          21.972     -10.296       0.489
 H          22.143       2.322       0.013
 H          21.936     -12.823       0.564
 H          18.431     -16.193       0.686
 H          22.114      -0.204       0.122
 H           8.238      -2.554      -0.062
 H           8.203      -5.077       0.031
 H           8.170      -7.600       0.134
 H           8.273      -0.032      -0.137
 C          18.869       3.559       0.092
 C          20.353       3.525       0.057
 C          21.060       4.840       0.022
 C          16.767       4.836      -0.070
 C          18.203       4.837       0.098
 C          18.934       6.110       0.140
 C          20.408       6.063       0.054
 C          12.305       4.915       0.024
 C          13.761       4.875      -0.099
 C          14.537       6.133      -0.151
 C          16.019       6.115      -0.146
 C          16.772       7.358       0.008
 C          18.214       7.338       0.139
 C          11.608       6.199       0.058
 C          12.358       7.404       0.087
 C          13.798       7.397      -0.025
 C          14.588       8.624       0.022
 C          16.012       8.593       0.032
 C           9.459       4.987      -0.118
 C          10.140       6.192      -0.044
 C          13.546      -7.610       0.848
 C          12.079      -7.561       0.702
 C          11.424      -8.829       0.465
 C           9.973      -8.825       0.346
 C          11.420      -1.318       0.628
 C           9.237     -10.106       0.254
 C          15.814      -8.897       0.749
 C          14.326      -8.867       0.723
 C          15.925      -1.329       0.993
 C          13.631     -10.132       0.563
 C          14.396      -1.315       0.960
 C          12.170     -10.111       0.499
 C          13.652      -2.590       0.996
 C          11.611       3.645      -0.007
 C          11.407     -11.341       0.512
 C          12.160      -2.550       0.890
 C          10.135       3.648      -0.088
 C           9.933     -11.316       0.424
 C          11.389      -3.823       0.884
 C           9.403       2.452      -0.189
 C           9.224     -12.634       0.467
 C          20.395      -1.452       0.636
 C          17.938     -10.188       0.594
 C          18.912      -1.411       0.774
 C          16.481     -10.166       0.597
 C          18.126      -2.625       1.010
 C          15.977       3.618       0.012
 C          15.769     -11.425       0.515
 C          16.631      -2.627       1.071
 C          14.504       3.639       0.002
 C          14.303     -11.410       0.506
 C          13.797       2.385       0.148
 C          13.528     -12.635       0.491
 C          15.874      -3.865       0.980
 C          14.382      -3.855       0.944
 C          12.338       2.396       0.085
 C          12.081     -12.625       0.639
 C          13.618      -5.097       1.086
 C          11.557       1.136       0.124
 C          11.345     -13.903       0.720
 C          12.122      -5.114       0.979
 C          10.101       1.161       0.010
 C           9.866     -13.857       0.619
 C          21.026      -2.721       0.551
 C          18.671     -11.432       0.609
 C          20.318      -3.950       0.737
 C          18.109       2.327       0.168
 C          17.962     -12.703       0.689
 C          18.857      -3.914       1.036
 C          16.654       2.349       0.187
 C          16.518     -12.669       0.507
 C          18.094      -5.185       1.103
 C          15.947       1.103       0.392
 C          15.743     -13.932       0.478
 C          16.596      -5.130       1.149
 C          14.460       1.119       0.380
 C          14.269     -13.913       0.468
 C          15.858      -6.413       1.166
 C          13.656      -0.100       0.597
 C          13.509     -15.139       0.663
 C          14.326      -6.391       1.140
 C          12.188      -0.118       0.439
 C          12.074     -15.122       0.788
 C          21.000      -5.198       0.650
 C          18.862       1.049       0.237
 C          18.664     -13.991       0.797
 C          20.323      -6.452       0.822
 C          18.188      -0.195       0.540
 C          17.913     -15.198       0.845
 C          18.840      -6.427       0.971
 C          16.717      -0.131       0.648
 C          16.482     -15.176       0.679
 C          18.084      -7.638       0.806
 C          15.687     -16.401       0.755
 C          16.612      -7.648       0.916
 C          14.263     -16.381       0.746
 C          20.930      -7.740       0.599
 C          20.170      -8.956       0.537
 C          18.714      -8.923       0.598
 C          20.879     -10.246       0.449
 C          20.151     -11.444       0.582
 C          11.345      -6.336       0.814
 C          21.049       2.309      -0.006
 C          20.833     -12.779       0.635
 C          20.314       1.044       0.190
 C          20.153     -13.982       0.742
 C          21.036      -0.191       0.318
 C           9.869      -6.318       0.597
 C           9.948      -3.820       0.504
 C           9.954      -1.323       0.407
 C           9.274      -2.573       0.276
 C           9.242      -5.047       0.373
 C           9.240      -7.591       0.359
 C           9.344      -0.049       0.099
