   142
 frame    729
 H          22.172       4.851      -0.067
 H          20.938       7.032      -0.099
 H          18.753       8.311      -0.074
 H          14.063       9.635      -0.055
 H          16.571       9.603      -0.037
 H           9.637       7.173      -0.196
 H           8.348       5.026      -0.217
 H          11.850       8.399      -0.126
 H           8.142     -10.125       0.251
 H           8.313       2.496      -0.186
 H           8.113     -12.652       0.384
 H           9.346     -14.828       0.525
 H          11.529     -16.106       0.629
 H          16.217     -17.428       0.736
 H          13.711     -17.396       0.717
 H          20.647     -14.970       0.637
 H          22.082      -2.727       0.249
 H          22.049      -5.248       0.355
 H          22.011      -7.770       0.426
 H          21.972     -10.296       0.489
 H          22.143       2.322       0.013
 H          21.936     -12.823       0.564
 H          18.431     -16.193       0.686
 H          22.114      -0.204       0.122
 H           8.238      -2.554      -0.062
 H           8.203      -5.077       0.031
 H           8.170      -7.600       0.134
 H           8.273      -0.032      -0.137
 C          18.881       3.614       0.379
 C          20.368       3.595       0.227
 C          21.075       4.881       0.172
 C          16.711       4.891       0.436
 C          18.183       4.886       0.434
 C          18.943       6.169       0.417
 C          20.396       6.101       0.230
 C          12.325       4.953       0.372
 C          13.797       4.926       0.402
 C          14.534       6.167       0.484
 C          16.001       6.149       0.489
 C          16.764       7.391       0.355
 C          18.207       7.407       0.281
 C          11.599       6.255       0.351
 C          12.370       7.482       0.238
 C          13.798       7.426       0.323
 C          14.603       8.639       0.038
 C          15.998       8.624       0.059
 C           9.444       5.021       0.042
 C          10.151       6.223       0.125
 C          13.602      -7.651       0.433
 C          12.138      -7.655       0.384
 C          11.420      -8.890       0.541
 C           9.940      -8.861       0.428
 C          11.532      -1.334       0.112
 C           9.223     -10.145       0.467
 C          15.806      -8.915       0.571
 C          14.333      -8.897       0.529
 C          15.904      -1.382       0.256
 C          13.578     -10.123       0.690
 C          14.444      -1.370       0.208
 C          12.136     -10.134       0.695
 C          13.733      -2.609       0.328
 C          11.597       3.703       0.288
 C          11.395     -11.390       0.808
 C          12.273      -2.576       0.149
 C          10.118       3.715       0.106
 C           9.921     -11.380       0.624
 C          11.562      -3.858       0.234
 C           9.385       2.492       0.038
 C           9.214     -12.665       0.647
 C          20.285      -1.447       0.240
 C          17.967     -10.202       0.815
 C          18.818      -1.419       0.243
 C          16.525     -10.163       0.753
 C          18.041      -2.650       0.278
 C          15.980       3.613       0.353
 C          15.769     -11.409       0.868
 C          16.579      -2.642       0.401
 C          14.496       3.631       0.331
 C          14.297     -11.388       0.850
 C          13.738       2.383       0.246
 C          13.564     -12.656       0.977
 C          15.839      -3.900       0.513
 C          14.435      -3.879       0.479
 C          12.299       2.423       0.257
 C          12.093     -12.648       0.960
 C          13.708      -5.143       0.411
 C          11.554       1.198       0.161
 C          11.338     -13.938       1.004
 C          12.243      -5.148       0.248
 C          10.074       1.198       0.060
 C           9.899     -13.877       0.789
 C          20.957      -2.710       0.335
 C          18.680     -11.487       0.925
 C          20.198      -3.963       0.412
 C          18.139       2.353       0.350
 C          17.946     -12.731       1.045
 C          18.728      -3.940       0.398
 C          16.692       2.345       0.299
 C          16.473     -12.693       1.018
 C          18.004      -5.215       0.397
 C          15.938       1.101       0.182
 C          15.729     -13.935       1.123
 C          16.537      -5.173       0.485
 C          14.462       1.120       0.145
 C          14.272     -13.918       1.109
 C          15.837      -6.420       0.466
 C          13.699      -0.106       0.137
 C          13.498     -15.172       1.005
 C          14.375      -6.408       0.414
 C          12.228      -0.060       0.089
 C          12.065     -15.186       0.949
 C          20.933      -5.232       0.438
 C          18.861       1.107       0.272
 C          18.667     -14.036       1.097
 C          20.229      -6.476       0.438
 C          18.147      -0.143       0.206
 C          17.907     -15.258       1.004
 C          18.746      -6.460       0.462
 C          16.682      -0.140       0.208
 C          16.471     -15.207       1.045
 C          18.035      -7.727       0.511
 C          15.677     -16.426       0.786
 C          16.578      -7.690       0.516
 C          14.272     -16.415       0.782
 C          20.904      -7.750       0.505
 C          20.201      -8.988       0.635
 C          18.711      -8.976       0.682
 C          20.883     -10.284       0.672
 C          20.150     -11.502       0.777
 C          11.465      -6.370       0.282
 C          21.062       2.358       0.184
 C          20.830     -12.809       0.809
 C          20.346       1.075       0.211
 C          20.110     -14.009       0.899
 C          21.010      -0.192       0.199
 C           9.984      -6.355       0.196
 C          10.077      -3.837       0.180
 C          10.059      -1.319       0.019
 C           9.350      -2.565       0.079
 C           9.317      -5.097       0.155
 C           9.271      -7.611       0.260
 C           9.375      -0.047      -0.025
