   142
 frame    184
 H          22.172       4.851      -0.067
 H          20.938       7.032      -0.099
 H          18.753       8.311      -0.074
 H          14.063       9.635      -0.055
 H          16.571       9.603      -0.037
 H           9.637       7.173      -0.196
 H           8.348       5.026      -0.217
 H          11.850       8.399      -0.126
 H           8.142     -10.125       0.251
 H           8.313       2.496      -0.186
 H           8.113     -12.652       0.384
 H           9.346     -14.828       0.525
 H          11.529     -16.106       0.629
 H          16.217     -17.428       0.736
 H          13.711     -17.396       0.717
 H          20.647     -14.970       0.637
 H          22.082      -2.727       0.249
 H          22.049      -5.248       0.355
 H          22.011      -7.770       0.426
 H          21.972     -10.296       0.489
 H          22.143       2.322       0.013
 H          21.936     -12.823       0.564
 H          18.431     -16.193       0.686
 H          22.114      -0.204       0.122
 H           8.238      -2.554      -0.062
 H           8.203      -5.077       0.031
 H           8.170      -7.600       0.134
 H           8.273      -0.032      -0.137
 C          18.902       3.604      -0.074
 C          20.367       3.587      -0.080
 C          21.067       4.886       0.026
 C          16.754       4.859      -0.111
 C          18.196       4.858       0.089
 C          18.915       6.127       0.280
 C          20.382       6.091       0.131
 C          12.322       4.926       0.028
 C          13.769       4.894      -0.119
 C          14.533       6.119      -0.061
 C          16.014       6.109      -0.052
 C          16.759       7.362       0.159
 C          18.203       7.362       0.234
 C          11.620       6.213       0.196
 C          12.365       7.433       0.193
 C          13.814       7.395       0.130
 C          14.600       8.653       0.087
 C          16.003       8.631       0.102
 C           9.449       5.027      -0.107
 C          10.162       6.211       0.030
 C          13.624      -7.654      -0.215
 C          12.159      -7.658      -0.369
 C          11.417      -8.910      -0.166
 C           9.930      -8.898      -0.062
 C          11.514      -1.375      -0.681
 C           9.245     -10.167       0.082
 C          15.816      -8.921       0.020
 C          14.347      -8.905      -0.011
 C          15.914      -1.437      -0.342
 C          13.617     -10.150       0.176
 C          14.458      -1.415      -0.375
 C          12.142     -10.167       0.115
 C          13.719      -2.668      -0.559
 C          11.588       3.697      -0.156
 C          11.388     -11.414       0.345
 C          12.239      -2.628      -0.606
 C          10.120       3.720      -0.214
 C           9.915     -11.397       0.291
 C          11.468      -3.883      -0.585
 C           9.416       2.494      -0.343
 C           9.212     -12.669       0.490
 C          20.299      -1.484      -0.207
 C          17.982     -10.233       0.215
 C          18.858      -1.479      -0.540
 C          16.508     -10.187       0.214
 C          18.098      -2.704      -0.499
 C          15.984       3.608      -0.156
 C          15.779     -11.433       0.355
 C          16.623      -2.707      -0.468
 C          14.513       3.626      -0.176
 C          14.308     -11.413       0.339
 C          13.788       2.374      -0.251
 C          13.553     -12.666       0.441
 C          15.895      -3.939      -0.525
 C          14.424      -3.923      -0.560
 C          12.306       2.418      -0.317
 C          12.094     -12.653       0.609
 C          13.687      -5.154      -0.469
 C          11.556       1.175      -0.504
 C          11.348     -13.906       0.857
 C          12.209      -5.151      -0.515
 C          10.071       1.197      -0.416
 C           9.894     -13.868       0.684
 C          20.988      -2.720      -0.028
 C          18.693     -11.505       0.464
 C          20.253      -3.974      -0.064
 C          18.156       2.341      -0.222
 C          17.953     -12.730       0.682
 C          18.839      -3.972      -0.429
 C          16.670       2.332      -0.202
 C          16.501     -12.708       0.485
 C          18.057      -5.221      -0.395
 C          15.946       1.091      -0.333
 C          15.744     -13.936       0.591
 C          16.587      -5.186      -0.395
 C          14.482       1.108      -0.353
 C          14.276     -13.914       0.570
 C          15.845      -6.419      -0.174
 C          13.725      -0.143      -0.490
 C          13.522     -15.145       0.835
 C          14.397      -6.399      -0.199
 C          12.258      -0.116      -0.615
 C          12.070     -15.140       0.905
 C          20.949      -5.244       0.076
 C          18.873       1.084      -0.382
 C          18.655     -14.005       0.931
 C          20.225      -6.475      -0.015
 C          18.145      -0.195      -0.515
 C          17.904     -15.220       0.959
 C          18.784      -6.471      -0.355
 C          16.680      -0.182      -0.420
 C          16.454     -15.191       0.861
 C          18.045      -7.721      -0.241
 C          15.672     -16.446       0.856
 C          16.574      -7.689      -0.154
 C          14.272     -16.428       0.846
 C          20.897      -7.761       0.214
 C          20.220      -9.019       0.139
 C          18.741      -9.002      -0.026
 C          20.878     -10.310       0.281
 C          20.165     -11.524       0.454
 C          11.455      -6.381      -0.511
 C          21.044       2.345      -0.186
 C          20.832     -12.818       0.656
 C          20.359       1.064      -0.249
 C          20.116     -14.001       0.798
 C          21.002      -0.198      -0.071
 C          10.004      -6.361      -0.235
 C          10.039      -3.852      -0.291
 C          10.060      -1.348      -0.407
 C           9.343      -2.571      -0.288
 C           9.313      -5.098      -0.193
 C           9.287      -7.622      -0.023
 C           9.392      -0.056      -0.292
