   142
 frame    346
 H          22.172       4.851      -0.067
 H          20.938       7.032      -0.099
 H          18.753       8.311      -0.074
 H          14.063       9.635      -0.055
 H          16.571       9.603      -0.037
 H           9.637       7.173      -0.196
 H           8.348       5.026      -0.217
 H          11.850       8.399      -0.126
 H           8.142     -10.125       0.251
 H           8.313       2.496      -0.186
 H           8.113     -12.652       0.384
 H           9.346     -14.828       0.525
 H          11.529     -16.106       0.629
 H          16.217     -17.428       0.736
 H          13.711     -17.396       0.717
 H          20.647     -14.970       0.637
 H          22.082      -2.727       0.249
 H          22.049      -5.248       0.355
 H          22.011      -7.770       0.426
 H          21.972     -10.296       0.489
 H          22.143       2.322       0.013
 H          21.936     -12.823       0.564
 H          18.431     -16.193       0.686
 H          22.114      -0.204       0.122
 H           8.238      -2.554      -0.062
 H           8.203      -5.077       0.031
 H           8.170      -7.600       0.134
 H           8.273      -0.032      -0.137
 C          18.891       3.630      -0.269
 C          20.365       3.595      -0.092
 C          21.067       4.857      -0.153
 C          16.747       4.933      -0.674
 C          18.200       4.898      -0.373
 C          18.945       6.164      -0.294
 C          20.386       6.069      -0.193
 C          12.321       4.982      -0.454
 C          13.781       4.973      -0.703
 C          14.546       6.235      -0.807
 C          16.022       6.220      -0.801
 C          16.792       7.457      -0.541
 C          18.223       7.399      -0.349
 C          11.613       6.259      -0.358
 C          12.364       7.476      -0.417
 C          13.803       7.494      -0.565
 C          14.605       8.674      -0.265
 C          16.013       8.658      -0.241
 C           9.450       5.003      -0.260
 C          10.158       6.193      -0.284
 C          13.628      -7.668      -0.250
 C          12.153      -7.655      -0.140
 C          11.414      -8.924      -0.148
 C           9.950      -8.883       0.052
 C          11.504      -1.354      -0.429
 C           9.252     -10.135       0.259
 C          15.816      -8.965      -0.214
 C          14.352      -8.947      -0.248
 C          15.908      -1.428      -0.417
 C          13.612     -10.223      -0.222
 C          14.456      -1.408      -0.447
 C          12.130     -10.203      -0.143
 C          13.713      -2.648      -0.342
 C          11.603       3.725      -0.364
 C          11.398     -11.451       0.100
 C          12.233      -2.621      -0.443
 C          10.128       3.721      -0.220
 C           9.931     -11.397       0.251
 C          11.498      -3.872      -0.523
 C           9.423       2.475      -0.173
 C           9.219     -12.662       0.290
 C          20.332      -1.428      -0.127
 C          17.998     -10.276      -0.029
 C          18.864      -1.446      -0.274
 C          16.518     -10.255      -0.170
 C          18.090      -2.691      -0.324
 C          15.994       3.669      -0.696
 C          15.788     -11.527      -0.233
 C          16.612      -2.683      -0.269
 C          14.506       3.686      -0.716
 C          14.307     -11.506      -0.259
 C          13.780       2.425      -0.613
 C          13.546     -12.771      -0.161
 C          15.880      -3.920      -0.038
 C          14.407      -3.902      -0.076
 C          12.305       2.444      -0.536
 C          12.088     -12.722       0.096
 C          13.676      -5.153      -0.274
 C          11.559       1.178      -0.472
 C          11.344     -13.972       0.259
 C          12.204      -5.145      -0.371
 C          10.090       1.194      -0.287
 C           9.897     -13.874       0.362
 C          20.976      -2.711       0.006
 C          18.692     -11.544       0.225
 C          20.275      -3.980      -0.082
 C          18.161       2.369      -0.440
 C          17.969     -12.794       0.175
 C          18.804      -3.964      -0.355
 C          16.681       2.385      -0.548
 C          16.518     -12.808      -0.122
 C          18.062      -5.214      -0.231
 C          15.947       1.099      -0.534
 C          15.754     -14.080      -0.208
 C          16.584      -5.187      -0.183
 C          14.485       1.116      -0.571
 C          14.275     -14.057      -0.229
 C          15.843      -6.437      -0.246
 C          13.739      -0.141      -0.498
 C          13.504     -15.285       0.111
 C          14.386      -6.418      -0.280
 C          12.257      -0.109      -0.371
 C          12.063     -15.211       0.281
 C          20.955      -5.256       0.101
 C          18.875       1.090      -0.345
 C          18.681     -14.065       0.340
 C          20.266      -6.518       0.054
 C          18.137      -0.180      -0.269
 C          17.929     -15.285       0.331
 C          18.796      -6.476      -0.101
 C          16.661      -0.182      -0.427
 C          16.491     -15.322       0.148
 C          18.046      -7.730      -0.016
 C          15.684     -16.491       0.480
 C          16.568      -7.691      -0.182
 C          14.279     -16.467       0.474
 C          20.928      -7.789       0.226
 C          20.211      -9.008       0.261
 C          18.747      -9.013      -0.010
 C          20.860     -10.289       0.456
 C          20.156     -11.533       0.414
 C          11.433      -6.385      -0.271
 C          21.031       2.335       0.009
 C          20.828     -12.805       0.446
 C          20.338       1.067      -0.118
 C          20.127     -14.004       0.468
 C          21.029      -0.167      -0.067
 C           9.963      -6.397      -0.176
 C          10.028      -3.849      -0.311
 C          10.038      -1.297      -0.345
 C           9.343      -2.564      -0.258
 C           9.308      -5.113      -0.172
 C           9.256      -7.648      -0.029
 C           9.362      -0.021      -0.299
