   142
 frame    479
 H          22.172       4.851      -0.067
 H          20.938       7.032      -0.099
 H          18.753       8.311      -0.074
 H          14.063       9.635      -0.055
 H          16.571       9.603      -0.037
 H           9.637       7.173      -0.196
 H           8.348       5.026      -0.217
 H          11.850       8.399      -0.126
 H           8.142     -10.125       0.251
 H           8.313       2.496      -0.186
 H           8.113     -12.652       0.384
 H           9.346     -14.828       0.525
 H          11.529     -16.106       0.629
 H          16.217     -17.428       0.736
 H          13.711     -17.396       0.717
 H          20.647     -14.970       0.637
 H          22.082      -2.727       0.249
 H          22.049      -5.248       0.355
 H          22.011      -7.770       0.426
 H          21.972     -10.296       0.489
 H          22.143       2.322       0.013
 H          21.936     -12.823       0.564
 H          18.431     -16.193       0.686
 H          22.114      -0.204       0.122
 H           8.238      -2.554      -0.062
 H           8.203      -5.077       0.031
 H           8.170      -7.600       0.134
 H           8.273      -0.032      -0.137
 C          18.918       3.603      -0.456
 C          20.346       3.571      -0.264
 C          21.058       4.862      -0.193
 C          16.741       4.863      -0.336
 C          18.194       4.856      -0.380
 C          18.910       6.130      -0.191
 C          20.400       6.074      -0.149
 C          12.327       4.933      -0.451
 C          13.772       4.898      -0.371
 C          14.550       6.153      -0.315
 C          16.004       6.133      -0.302
 C          16.735       7.400      -0.179
 C          18.186       7.353      -0.096
 C          11.638       6.222      -0.258
 C          12.393       7.431      -0.149
 C          13.851       7.438      -0.211
 C          14.615       8.702      -0.114
 C          15.999       8.682      -0.104
 C           9.473       5.003      -0.294
 C          10.157       6.203      -0.231
 C          13.662      -7.694      -0.266
 C          12.193      -7.646      -0.081
 C          11.447      -8.903       0.030
 C           9.970      -8.864       0.133
 C          11.495      -1.341      -0.127
 C           9.270     -10.152       0.196
 C          15.810      -8.989      -0.274
 C          14.352      -8.975      -0.297
 C          15.913      -1.407      -0.320
 C          13.594     -10.195      -0.189
 C          14.448      -1.385      -0.357
 C          12.118     -10.193      -0.164
 C          13.677      -2.613      -0.058
 C          11.573       3.699      -0.547
 C          11.375     -11.445      -0.058
 C          12.211      -2.603      -0.018
 C          10.138       3.711      -0.406
 C           9.945     -11.396       0.141
 C          11.484      -3.853       0.138
 C           9.435       2.497      -0.247
 C           9.232     -12.665       0.298
 C          20.318      -1.454       0.113
 C          18.016     -10.263      -0.068
 C          18.853      -1.426       0.012
 C          16.536     -10.229      -0.149
 C          18.107      -2.681       0.105
 C          15.982       3.628      -0.467
 C          15.782     -11.465       0.002
 C          16.643      -2.652       0.005
 C          14.513       3.646      -0.482
 C          14.315     -11.456      -0.020
 C          13.769       2.406      -0.593
 C          13.546     -12.676       0.163
 C          15.879      -3.917       0.146
 C          14.390      -3.900       0.112
 C          12.287       2.430      -0.571
 C          12.093     -12.688       0.111
 C          13.636      -5.169       0.007
 C          11.585       1.179      -0.304
 C          11.374     -13.939       0.397
 C          12.171      -5.132       0.069
 C          10.110       1.190      -0.207
 C           9.887     -13.875       0.415
 C          20.987      -2.707       0.331
 C          18.727     -11.532       0.044
 C          20.295      -3.964       0.359
 C          18.179       2.348      -0.470
 C          17.967     -12.755       0.176
 C          18.801      -3.941       0.277
 C          16.701       2.364      -0.539
 C          16.512     -12.714       0.202
 C          18.081      -5.205       0.180
 C          15.946       1.134      -0.593
 C          15.744     -13.968       0.295
 C          16.621      -5.207       0.069
 C          14.488       1.157      -0.631
 C          14.286     -13.948       0.284
 C          15.846      -6.441      -0.191
 C          13.760      -0.099      -0.500
 C          13.555     -15.211       0.469
 C          14.377      -6.428      -0.226
 C          12.287      -0.109      -0.316
 C          12.105     -15.160       0.544
 C          20.962      -5.235       0.422
 C          18.838       1.080      -0.184
 C          18.642     -14.029       0.470
 C          20.251      -6.480       0.288
 C          18.099      -0.183      -0.210
 C          17.878     -15.235       0.592
 C          18.781      -6.467       0.171
 C          16.638      -0.137      -0.449
 C          16.438     -15.250       0.503
 C          17.992      -7.711       0.042
 C          15.667     -16.503       0.644
 C          16.535      -7.729      -0.217
 C          14.288     -16.485       0.630
 C          20.910      -7.740       0.279
 C          20.183      -8.990       0.323
 C          18.713      -8.995       0.157
 C          20.852     -10.290       0.376
 C          20.149     -11.522       0.280
 C          11.436      -6.383       0.029
 C          21.022       2.342      -0.072
 C          20.824     -12.805       0.456
 C          20.310       1.051      -0.037
 C          20.140     -14.001       0.525
 C          21.010      -0.206       0.003
 C           9.961      -6.355       0.063
 C           9.984      -3.835       0.131
 C          10.030      -1.321      -0.089
 C           9.321      -2.564       0.075
 C           9.285      -5.090       0.163
 C           9.273      -7.601       0.041
 C           9.384      -0.058      -0.214
