   142
 frame    108
 H          22.172       4.851      -0.067
 H          20.938       7.032      -0.099
 H          18.753       8.311      -0.074
 H          14.063       9.635      -0.055
 H          16.571       9.603      -0.037
 H           9.637       7.173      -0.196
 H           8.348       5.026      -0.217
 H          11.850       8.399      -0.126
 H           8.142     -10.125       0.251
 H           8.313       2.496      -0.186
 H           8.113     -12.652       0.384
 H           9.346     -14.828       0.525
 H          11.529     -16.106       0.629
 H          16.217     -17.428       0.736
 H          13.711     -17.396       0.717
 H          20.647     -14.970       0.637
 H          22.082      -2.727       0.249
 H          22.049      -5.248       0.355
 H          22.011      -7.770       0.426
 H          21.972     -10.296       0.489
 H          22.143       2.322       0.013
 H          21.936     -12.823       0.564
 H          18.431     -16.193       0.686
 H          22.114      -0.204       0.122
 H           8.238      -2.554      -0.062
 H           8.203      -5.077       0.031
 H           8.170      -7.600       0.134
 H           8.273      -0.032      -0.137
 C          18.891       3.587       0.106
 C          20.366       3.568      -0.035
 C          21.072       4.875      -0.165
 C          16.708       4.870       0.007
 C          18.173       4.849      -0.069
 C          18.923       6.127      -0.154
 C          20.400       6.083      -0.129
 C          12.343       4.919      -0.127
 C          13.809       4.896      -0.029
 C          14.539       6.166      -0.126
 C          16.004       6.151      -0.112
 C          16.761       7.407      -0.108
 C          18.205       7.356      -0.100
 C          11.620       6.218      -0.223
 C          12.368       7.428      -0.153
 C          13.813       7.444      -0.131
 C          14.605       8.673      -0.071
 C          16.003       8.655      -0.061
 C           9.451       5.018      -0.293
 C          10.147       6.210      -0.240
 C          13.635      -7.677      -0.132
 C          12.159      -7.681      -0.056
 C          11.432      -8.878       0.302
 C           9.958      -8.844       0.393
 C          11.541      -1.336      -0.328
 C           9.243     -10.128       0.414
 C          15.813      -8.964       0.081
 C          14.348      -8.944       0.057
 C          15.923      -1.422      -0.339
 C          13.607     -10.136       0.462
 C          14.438      -1.403      -0.355
 C          12.143     -10.109       0.530
 C          13.713      -2.645      -0.537
 C          11.597       3.669       0.010
 C          11.393     -11.379       0.541
 C          12.221      -2.601      -0.344
 C          10.123       3.697      -0.149
 C           9.918     -11.376       0.370
 C          11.485      -3.873      -0.248
 C           9.410       2.469      -0.030
 C           9.213     -12.677       0.300
 C          20.304      -1.455      -0.004
 C          17.970     -10.189       0.624
 C          18.836      -1.424      -0.198
 C          16.510     -10.172       0.513
 C          18.122      -2.673      -0.234
 C          15.970       3.606       0.149
 C          15.770     -11.426       0.682
 C          16.625      -2.680      -0.455
 C          14.516       3.623       0.130
 C          14.312     -11.406       0.660
 C          13.776       2.364       0.019
 C          13.568     -12.664       0.573
 C          15.889      -3.930      -0.541
 C          14.425      -3.915      -0.567
 C          12.307       2.385       0.080
 C          12.108     -12.651       0.467
 C          13.681      -5.158      -0.426
 C          11.562       1.169      -0.058
 C          11.359     -13.927       0.429
 C          12.186      -5.150      -0.251
 C          10.089       1.169       0.034
 C           9.887     -13.876       0.422
 C          20.967      -2.719       0.039
 C          18.685     -11.476       0.651
 C          20.274      -3.982      -0.054
 C          18.145       2.320       0.182
 C          17.941     -12.728       0.548
 C          18.827      -3.956      -0.100
 C          16.679       2.330       0.055
 C          16.480     -12.704       0.611
 C          18.083      -5.229      -0.141
 C          15.949       1.122      -0.278
 C          15.736     -13.959       0.541
 C          16.595      -5.198      -0.367
 C          14.486       1.138      -0.310
 C          14.275     -13.942       0.525
 C          15.848      -6.421      -0.136
 C          13.724      -0.116      -0.404
 C          13.521     -15.198       0.568
 C          14.379      -6.403      -0.177
 C          12.262      -0.064      -0.329
 C          12.077     -15.149       0.554
 C          20.940      -5.243       0.130
 C          18.865       1.084       0.060
 C          18.652     -14.018       0.514
 C          20.235      -6.489       0.195
 C          18.140      -0.133      -0.238
 C          17.902     -15.222       0.611
 C          18.774      -6.488      -0.004
 C          16.684      -0.148      -0.347
 C          16.459     -15.231       0.598
 C          18.031      -7.751       0.072
 C          15.674     -16.462       0.684
 C          16.566      -7.719      -0.078
 C          14.276     -16.445       0.673
 C          20.914      -7.745       0.514
 C          20.190      -8.977       0.573
 C          18.717      -8.966       0.440
 C          20.873     -10.276       0.613
 C          20.166     -11.505       0.532
 C          11.470      -6.399      -0.155
 C          21.044       2.328       0.130
 C          20.837     -12.818       0.457
 C          20.333       1.048       0.212
 C          20.124     -14.001       0.539
 C          21.021      -0.201       0.222
 C           9.994      -6.364      -0.036
 C          10.029      -3.854      -0.289
 C          10.064      -1.330      -0.222
 C           9.355      -2.575      -0.239
 C           9.315      -5.102      -0.139
 C           9.257      -7.602       0.283
 C           9.363      -0.062      -0.001
