   142
 frame    778
 H          22.172       4.851      -0.067
 H          20.938       7.032      -0.099
 H          18.753       8.311      -0.074
 H          14.063       9.635      -0.055
 H          16.571       9.603      -0.037
 H           9.637       7.173      -0.196
 H           8.348       5.026      -0.217
 H          11.850       8.399      -0.126
 H           8.142     -10.125       0.251
 H           8.313       2.496      -0.186
 H           8.113     -12.652       0.384
 H           9.346     -14.828       0.525
 H          11.529     -16.106       0.629
 H          16.217     -17.428       0.736
 H          13.711     -17.396       0.717
 H          20.647     -14.970       0.637
 H          22.082      -2.727       0.249
 H          22.049      -5.248       0.355
 H          22.011      -7.770       0.426
 H          21.972     -10.296       0.489
 H          22.143       2.322       0.013
 H          21.936     -12.823       0.564
 H          18.431     -16.193       0.686
 H          22.114      -0.204       0.122
 H           8.238      -2.554      -0.062
 H           8.203      -5.077       0.031
 H           8.170      -7.600       0.134
 H           8.273      -0.032      -0.137
 C          18.852       3.611       0.312
 C          20.307       3.591       0.139
 C          21.037       4.841      -0.088
 C          16.690       4.887       0.463
 C          18.161       4.867       0.344
 C          18.896       6.096      -0.043
 C          20.368       6.053      -0.218
 C          12.351       4.945       0.272
 C          13.814       4.922       0.424
 C          14.531       6.143       0.213
 C          16.000       6.125       0.211
 C          16.749       7.395       0.098
 C          18.174       7.355      -0.093
 C          11.658       6.178      -0.114
 C          12.410       7.430      -0.144
 C          13.825       7.434       0.068
 C          14.615       8.709       0.138
 C          15.992       8.691       0.152
 C           9.480       4.981      -0.201
 C          10.188       6.177      -0.317
 C          13.638      -7.664       0.666
 C          12.171      -7.644       0.612
 C          11.433      -8.910       0.548
 C           9.966      -8.874       0.449
 C          11.530      -1.315       0.342
 C           9.235     -10.153       0.482
 C          15.793      -8.925       0.818
 C          14.349      -8.904       0.793
 C          15.898      -1.361       0.409
 C          13.609     -10.141       0.837
 C          14.444      -1.350       0.374
 C          12.156     -10.146       0.696
 C          13.706      -2.581       0.488
 C          11.630       3.709       0.212
 C          11.428     -11.394       0.737
 C          12.248      -2.567       0.357
 C          10.179       3.716      -0.002
 C           9.967     -11.379       0.526
 C          11.536      -3.851       0.298
 C           9.406       2.502       0.051
 C           9.242     -12.645       0.396
 C          20.289      -1.433       0.265
 C          17.949     -10.224       0.809
 C          18.806      -1.406       0.493
 C          16.497     -10.180       0.899
 C          18.056      -2.647       0.504
 C          15.956       3.629       0.611
 C          15.759     -11.406       1.141
 C          16.593      -2.625       0.562
 C          14.507       3.649       0.605
 C          14.306     -11.391       1.121
 C          13.769       2.413       0.395
 C          13.584     -12.652       1.013
 C          15.863      -3.891       0.629
 C          14.408      -3.872       0.612
 C          12.321       2.453       0.253
 C          12.114     -12.648       0.865
 C          13.674      -5.144       0.606
 C          11.570       1.220       0.184
 C          11.393     -13.889       0.523
 C          12.206      -5.135       0.479
 C          10.096       1.220       0.087
 C           9.918     -13.858       0.328
 C          20.950      -2.721       0.249
 C          18.652     -11.490       0.862
 C          20.195      -3.964       0.325
 C          18.123       2.373       0.343
 C          17.931     -12.725       0.957
 C          18.745      -3.940       0.480
 C          16.666       2.373       0.433
 C          16.449     -12.689       1.057
 C          18.029      -5.206       0.619
 C          15.927       1.129       0.430
 C          15.731     -13.925       0.881
 C          16.553      -5.178       0.660
 C          14.478       1.146       0.414
 C          14.277     -13.905       0.859
 C          15.832      -6.427       0.623
 C          13.737      -0.084       0.374
 C          13.531     -15.182       0.775
 C          14.371      -6.409       0.596
 C          12.267      -0.049       0.337
 C          12.110     -15.145       0.561
 C          20.911      -5.227       0.356
 C          18.852       1.132       0.306
 C          18.633     -13.979       0.615
 C          20.216      -6.488       0.464
 C          18.107      -0.128       0.444
 C          17.876     -15.219       0.620
 C          18.742      -6.462       0.707
 C          16.642      -0.124       0.425
 C          16.444     -15.214       0.811
 C          18.008      -7.719       0.731
 C          15.666     -16.485       0.907
 C          16.545      -7.693       0.739
 C          14.283     -16.473       0.905
 C          20.903      -7.768       0.480
 C          20.181      -9.004       0.659
 C          18.704      -8.998       0.698
 C          20.870     -10.300       0.695
 C          20.108     -11.510       0.680
 C          11.456      -6.373       0.531
 C          21.043       2.374       0.227
 C          20.809     -12.793       0.553
 C          20.327       1.092       0.265
 C          20.109     -13.986       0.429
 C          21.009      -0.177       0.183
 C           9.992      -6.365       0.222
 C          10.094      -3.832       0.082
 C          10.062      -1.299       0.047
 C           9.370      -2.570      -0.013
 C           9.334      -5.081       0.084
 C           9.278      -7.628       0.234
 C           9.378      -0.027      -0.043
