   142
 frame    275
 H          22.172       4.851      -0.067
 H          20.938       7.032      -0.099
 H          18.753       8.311      -0.074
 H          14.063       9.635      -0.055
 H          16.571       9.603      -0.037
 H           9.637       7.173      -0.196
 H           8.348       5.026      -0.217
 H          11.850       8.399      -0.126
 H           8.142     -10.125       0.251
 H           8.313       2.496      -0.186
 H           8.113     -12.652       0.384
 H           9.346     -14.828       0.525
 H          11.529     -16.106       0.629
 H          16.217     -17.428       0.736
 H          13.711     -17.396       0.717
 H          20.647     -14.970       0.637
 H          22.082      -2.727       0.249
 H          22.049      -5.248       0.355
 H          22.011      -7.770       0.426
 H          21.972     -10.296       0.489
 H          22.143       2.322       0.013
 H          21.936     -12.823       0.564
 H          18.431     -16.193       0.686
 H          22.114      -0.204       0.122
 H           8.238      -2.554      -0.062
 H           8.203      -5.077       0.031
 H           8.170      -7.600       0.134
 H           8.273      -0.032      -0.137
 C          18.864       3.562      -0.304
 C          20.366       3.568      -0.284
 C          21.085       4.873      -0.356
 C          16.716       4.879      -0.342
 C          18.155       4.826      -0.188
 C          18.931       6.104      -0.111
 C          20.398       6.080      -0.262
 C          12.370       4.899      -0.248
 C          13.811       4.916      -0.354
 C          14.552       6.160      -0.383
 C          16.001       6.136      -0.371
 C          16.760       7.375      -0.137
 C          18.211       7.335      -0.092
 C          11.626       6.194      -0.205
 C          12.371       7.413      -0.141
 C          13.821       7.417      -0.166
 C          14.603       8.656       0.019
 C          16.012       8.637       0.011
 C           9.440       5.021      -0.479
 C          10.159       6.206      -0.360
 C          13.628      -7.678      -0.388
 C          12.172      -7.644      -0.265
 C          11.445      -8.894      -0.125
 C           9.964      -8.854       0.089
 C          11.538      -1.353      -0.339
 C           9.252     -10.142       0.188
 C          15.819      -8.944      -0.137
 C          14.361      -8.929      -0.167
 C          15.953      -1.397      -0.781
 C          13.623     -10.175      -0.057
 C          14.443      -1.378      -0.809
 C          12.158     -10.153      -0.118
 C          13.712      -2.649      -0.676
 C          11.625       3.654      -0.395
 C          11.433     -11.385       0.087
 C          12.236      -2.625      -0.543
 C          10.132       3.700      -0.427
 C           9.936     -11.389       0.079
 C          11.492      -3.860      -0.390
 C           9.418       2.480      -0.241
 C           9.210     -12.706       0.120
 C          20.286      -1.460       0.118
 C          17.974     -10.221      -0.002
 C          18.828      -1.439      -0.189
 C          16.509     -10.213      -0.001
 C          18.095      -2.698      -0.414
 C          15.988       3.625      -0.395
 C          15.788     -11.462       0.080
 C          16.631      -2.687      -0.615
 C          14.509       3.643      -0.409
 C          14.312     -11.439       0.058
 C          13.788       2.395      -0.460
 C          13.572     -12.698       0.165
 C          15.882      -3.933      -0.552
 C          14.425      -3.911      -0.587
 C          12.321       2.395      -0.518
 C          12.136     -12.640       0.312
 C          13.681      -5.164      -0.604
 C          11.575       1.155      -0.438
 C          11.360     -13.901       0.465
 C          12.201      -5.136      -0.462
 C          10.092       1.168      -0.247
 C           9.893     -13.900       0.294
 C          20.967      -2.721       0.172
 C          18.662     -11.476       0.210
 C          20.260      -3.970       0.117
 C          18.147       2.314      -0.425
 C          17.924     -12.711       0.386
 C          18.808      -3.954      -0.216
 C          16.676       2.357      -0.419
 C          16.493     -12.733       0.212
 C          18.064      -5.208      -0.324
 C          15.950       1.099      -0.457
 C          15.747     -13.972       0.239
 C          16.604      -5.196      -0.532
 C          14.493       1.114      -0.495
 C          14.284     -13.957       0.223
 C          15.883      -6.474      -0.608
 C          13.724      -0.118      -0.643
 C          13.517     -15.191       0.496
 C          14.377      -6.456      -0.651
 C          12.268      -0.111      -0.511
 C          12.073     -15.135       0.547
 C          20.936      -5.230       0.275
 C          18.866       1.067      -0.330
 C          18.659     -13.989       0.542
 C          20.207      -6.467       0.317
 C          18.132      -0.178      -0.402
 C          17.917     -15.208       0.609
 C          18.763      -6.463      -0.006
 C          16.693      -0.157      -0.578
 C          16.468     -15.227       0.530
 C          18.033      -7.714      -0.137
 C          15.683     -16.447       0.765
 C          16.588      -7.714      -0.329
 C          14.274     -16.434       0.740
 C          20.889      -7.744       0.432
 C          20.192      -8.986       0.295
 C          18.726      -8.985       0.019
 C          20.864     -10.289       0.393
 C          20.156     -11.520       0.233
 C          11.466      -6.371      -0.166
 C          21.040       2.337      -0.063
 C          20.844     -12.847       0.267
 C          20.330       1.047      -0.066
 C          20.129     -14.029       0.412
 C          20.998      -0.200       0.141
 C          10.001      -6.342       0.071
 C          10.026      -3.846      -0.125
 C          10.070      -1.336      -0.104
 C           9.353      -2.578      -0.087
 C           9.321      -5.087       0.001
 C           9.290      -7.598       0.175
 C           9.384      -0.061      -0.086
