   142
 frame    150
 H          22.172       4.851      -0.067
 H          20.938       7.032      -0.099
 H          18.753       8.311      -0.074
 H          14.063       9.635      -0.055
 H          16.571       9.603      -0.037
 H           9.637       7.173      -0.196
 H           8.348       5.026      -0.217
 H          11.850       8.399      -0.126
 H           8.142     -10.125       0.251
 H           8.313       2.496      -0.186
 H           8.113     -12.652       0.384
 H           9.346     -14.828       0.525
 H          11.529     -16.106       0.629
 H          16.217     -17.428       0.736
 H          13.711     -17.396       0.717
 H          20.647     -14.970       0.637
 H          22.082      -2.727       0.249
 H          22.049      -5.248       0.355
 H          22.011      -7.770       0.426
 H          21.972     -10.296       0.489
 H          22.143       2.322       0.013
 H          21.936     -12.823       0.564
 H          18.431     -16.193       0.686
 H          22.114      -0.204       0.122
 H           8.238      -2.554      -0.062
 H           8.203      -5.077       0.031
 H           8.170      -7.600       0.134
 H           8.273      -0.032      -0.137
 C          18.880       3.585       0.057
 C          20.346       3.572       0.129
 C          21.064       4.879       0.145
 C          16.722       4.884       0.088
 C          18.166       4.849       0.077
 C          18.900       6.118       0.035
 C          20.375       6.086       0.064
 C          12.347       4.926       0.020
 C          13.792       4.919       0.045
 C          14.533       6.192       0.080
 C          16.012       6.169       0.090
 C          16.764       7.415      -0.054
 C          18.203       7.358      -0.059
 C          11.650       6.212      -0.027
 C          12.385       7.431      -0.109
 C          13.823       7.459      -0.074
 C          14.618       8.683      -0.128
 C          16.008       8.665      -0.115
 C           9.452       5.022       0.014
 C          10.168       6.211      -0.021
 C          13.652      -7.681      -0.121
 C          12.172      -7.658      -0.092
 C          11.430      -8.909       0.072
 C           9.954      -8.878       0.025
 C          11.523      -1.337      -0.492
 C           9.238     -10.127       0.301
 C          15.801      -8.960       0.116
 C          14.363      -8.945       0.088
 C          15.943      -1.408      -0.491
 C          13.612     -10.195       0.187
 C          14.427      -1.390      -0.500
 C          12.131     -10.159       0.236
 C          13.682      -2.646      -0.515
 C          11.606       3.676      -0.037
 C          11.394     -11.388       0.474
 C          12.209      -2.634      -0.583
 C          10.138       3.697      -0.006
 C           9.931     -11.363       0.507
 C          11.485      -3.889      -0.654
 C           9.413       2.474      -0.135
 C           9.210     -12.664       0.617
 C          20.339      -1.447      -0.263
 C          17.989     -10.238       0.332
 C          18.854      -1.430      -0.333
 C          16.514     -10.232       0.246
 C          18.134      -2.711      -0.458
 C          15.976       3.638      -0.121
 C          15.771     -11.469       0.386
 C          16.663      -2.679      -0.463
 C          14.512       3.656      -0.148
 C          14.319     -11.453       0.367
 C          13.784       2.404      -0.240
 C          13.563     -12.677       0.634
 C          15.892      -3.942      -0.289
 C          14.417      -3.922      -0.301
 C          12.312       2.421      -0.196
 C          12.115     -12.651       0.602
 C          13.652      -5.177      -0.420
 C          11.564       1.180      -0.275
 C          11.375     -13.917       0.634
 C          12.175      -5.152      -0.497
 C          10.093       1.190      -0.315
 C           9.890     -13.873       0.655
 C          21.009      -2.724      -0.043
 C          18.687     -11.477       0.585
 C          20.356      -3.990      -0.253
 C          18.143       2.353      -0.111
 C          17.929     -12.720       0.683
 C          18.826      -3.983      -0.490
 C          16.677       2.372      -0.220
 C          16.483     -12.713       0.669
 C          18.101      -5.225      -0.363
 C          15.930       1.110      -0.255
 C          15.743     -13.973       0.750
 C          16.628      -5.219      -0.359
 C          14.502       1.129      -0.274
 C          14.272     -13.958       0.734
 C          15.871      -6.462      -0.287
 C          13.757      -0.117      -0.393
 C          13.529     -15.211       0.631
 C          14.363      -6.446      -0.321
 C          12.275      -0.094      -0.368
 C          12.091     -15.153       0.609
 C          20.979      -5.241       0.054
 C          18.867       1.093      -0.160
 C          18.638     -14.008       0.716
 C          20.272      -6.518      -0.056
 C          18.126      -0.170      -0.256
 C          17.896     -15.225       0.661
 C          18.791      -6.507      -0.152
 C          16.646      -0.153      -0.343
 C          16.460     -15.238       0.659
 C          18.022      -7.736       0.021
 C          15.679     -16.470       0.623
 C          16.552      -7.722      -0.080
 C          14.288     -16.457       0.614
 C          20.944      -7.759       0.131
 C          20.205      -9.006       0.231
 C          18.732      -8.999       0.210
 C          20.873     -10.270       0.511
 C          20.149     -11.494       0.660
 C          11.452      -6.419      -0.303
 C          21.043       2.328       0.043
 C          20.834     -12.814       0.761
 C          20.334       1.063      -0.132
 C          20.125     -14.006       0.770
 C          21.036      -0.214      -0.168
 C           9.965      -6.390      -0.285
 C           9.960      -3.853      -0.480
 C          10.044      -1.315      -0.470
 C           9.330      -2.580      -0.294
 C           9.292      -5.103      -0.209
 C           9.248      -7.617      -0.118
 C           9.359      -0.064      -0.375
