   142
 frame     21
 H          22.172       4.851      -0.067
 H          20.938       7.032      -0.099
 H          18.753       8.311      -0.074
 H          14.063       9.635      -0.055
 H          16.571       9.603      -0.037
 H           9.637       7.173      -0.196
 H           8.348       5.026      -0.217
 H          11.850       8.399      -0.126
 H           8.142     -10.125       0.251
 H           8.313       2.496      -0.186
 H           8.113     -12.652       0.384
 H           9.346     -14.828       0.525
 H          11.529     -16.106       0.629
 H          16.217     -17.428       0.736
 H          13.711     -17.396       0.717
 H          20.647     -14.970       0.637
 H          22.082      -2.727       0.249
 H          22.049      -5.248       0.355
 H          22.011      -7.770       0.426
 H          21.972     -10.296       0.489
 H          22.143       2.322       0.013
 H          21.936     -12.823       0.564
 H          18.431     -16.193       0.686
 H          22.114      -0.204       0.122
 H           8.238      -2.554      -0.062
 H           8.203      -5.077       0.031
 H           8.170      -7.600       0.134
 H           8.273      -0.032      -0.137
 C          18.881       3.600      -0.034
 C          20.355       3.576      -0.030
 C          21.065       4.869      -0.061
 C          16.715       4.878      -0.061
 C          18.170       4.861      -0.057
 C          18.909       6.130      -0.070
 C          20.383       6.074      -0.079
 C          12.347       4.934      -0.121
 C          13.801       4.914      -0.094
 C          14.546       6.164      -0.085
 C          16.003       6.145      -0.071
 C          16.751       7.399      -0.066
 C          18.191       7.357      -0.070
 C          11.640       6.220      -0.140
 C          12.387       7.431      -0.119
 C          13.828       7.436      -0.090
 C          14.608       8.671      -0.065
 C          16.002       8.654      -0.055
 C           9.455       5.016      -0.189
 C          10.166       6.202      -0.177
 C          13.648      -7.623       0.294
 C          12.181      -7.623       0.251
 C          11.433      -8.883       0.290
 C           9.959      -8.867       0.248
 C          11.546      -1.356       0.000
 C           9.249     -10.137       0.285
 C          15.804      -8.918       0.361
 C          14.346      -8.900       0.333
 C          15.898      -1.392       0.279
 C          13.604     -10.156       0.391
 C          14.446      -1.367       0.275
 C          12.140     -10.145       0.364
 C          13.696      -2.631       0.092
 C          11.604       3.691      -0.126
 C          11.402     -11.399       0.400
 C          12.216      -2.604       0.212
 C          10.132       3.705      -0.160
 C           9.930     -11.377       0.363
 C          11.509      -3.856       0.168
 C           9.419       2.481      -0.159
 C           9.220     -12.669       0.410
 C          20.283      -1.453       0.143
 C          17.975     -10.218       0.464
 C          18.808      -1.446       0.138
 C          16.512     -10.192       0.441
 C          18.085      -2.681       0.303
 C          15.971       3.623      -0.052
 C          15.771     -11.440       0.484
 C          16.623      -2.666       0.195
 C          14.512       3.639      -0.070
 C          14.311     -11.422       0.462
 C          13.773       2.388      -0.069
 C          13.569     -12.675       0.501
 C          15.813      -3.909       0.014
 C          14.444      -3.882       0.002
 C          12.309       2.418      -0.091
 C          12.113     -12.659       0.473
 C          13.679      -5.109       0.195
 C          11.570       1.169      -0.082
 C          11.374     -13.926       0.520
 C          12.186      -5.114       0.311
 C          10.095       1.193      -0.117
 C           9.901     -13.871       0.488
 C          20.971      -2.715       0.221
 C          18.679     -11.489       0.510
 C          20.253      -3.965       0.254
 C          18.143       2.346      -0.005
 C          17.936     -12.731       0.548
 C          18.777      -3.946       0.322
 C          16.680       2.353      -0.024
 C          16.481     -12.712       0.538
 C          18.054      -5.186       0.438
 C          15.939       1.089      -0.022
 C          15.737     -13.959       0.581
 C          16.569      -5.138       0.248
 C          14.480       1.107      -0.048
 C          14.279     -13.941       0.565
 C          15.836      -6.406       0.516
 C          13.752      -0.147       0.009
 C          13.531     -15.194       0.613
 C          14.373      -6.385       0.481
 C          12.285      -0.113      -0.035
 C          12.090     -15.153       0.592
 C          20.938      -5.232       0.328
 C          18.850       1.080       0.040
 C          18.643     -14.017       0.599
 C          20.219      -6.478       0.347
 C          18.103      -0.183       0.069
 C          17.894     -15.226       0.645
 C          18.744      -6.455       0.353
 C          16.635      -0.184       0.049
 C          16.454     -15.231       0.640
 C          18.005      -7.697       0.373
 C          15.673     -16.465       0.689
 C          16.540      -7.662       0.357
 C          14.279     -16.447       0.678
 C          20.901      -7.751       0.410
 C          20.190      -8.994       0.446
 C          18.716      -8.973       0.430
 C          20.866     -10.280       0.485
 C          20.152     -11.503       0.518
 C          11.476      -6.364       0.193
 C          21.036       2.335       0.009
 C          20.830     -12.814       0.562
 C          20.326       1.066       0.054
 C          20.117     -13.998       0.602
 C          21.002      -0.196       0.108
 C          10.003      -6.352       0.118
 C          10.041      -3.840       0.017
 C          10.076      -1.328      -0.071
 C           9.352      -2.572      -0.039
 C           9.317      -5.088       0.056
 C           9.283      -7.606       0.165
 C           9.388      -0.054      -0.111
