   142
 frame    245
 H          22.172       4.851      -0.067
 H          20.938       7.032      -0.099
 H          18.753       8.311      -0.074
 H          14.063       9.635      -0.055
 H          16.571       9.603      -0.037
 H           9.637       7.173      -0.196
 H           8.348       5.026      -0.217
 H          11.850       8.399      -0.126
 H           8.142     -10.125       0.251
 H           8.313       2.496      -0.186
 H           8.113     -12.652       0.384
 H           9.346     -14.828       0.525
 H          11.529     -16.106       0.629
 H          16.217     -17.428       0.736
 H          13.711     -17.396       0.717
 H          20.647     -14.970       0.637
 H          22.082      -2.727       0.249
 H          22.049      -5.248       0.355
 H          22.011      -7.770       0.426
 H          21.972     -10.296       0.489
 H          22.143       2.322       0.013
 H          21.936     -12.823       0.564
 H          18.431     -16.193       0.686
 H          22.114      -0.204       0.122
 H           8.238      -2.554      -0.062
 H           8.203      -5.077       0.031
 H           8.170      -7.600       0.134
 H           8.273      -0.032      -0.137
 C          18.887       3.620      -0.372
 C          20.393       3.603      -0.285
 C          21.068       4.894      -0.108
 C          16.733       4.851      -0.051
 C          18.178       4.894      -0.396
 C          18.922       6.168      -0.358
 C          20.378       6.095      -0.183
 C          12.347       4.969      -0.457
 C          13.788       4.895      -0.099
 C          14.542       6.138       0.136
 C          16.008       6.116       0.149
 C          16.737       7.401       0.026
 C          18.175       7.365      -0.152
 C          11.638       6.258      -0.426
 C          12.405       7.434      -0.201
 C          13.844       7.435      -0.004
 C          14.611       8.680      -0.049
 C          16.000       8.667      -0.016
 C           9.446       5.041      -0.242
 C          10.172       6.219      -0.277
 C          13.639      -7.699      -0.513
 C          12.183      -7.674      -0.266
 C          11.449      -8.900       0.034
 C           9.974      -8.878       0.059
 C          11.548      -1.333      -0.421
 C           9.239     -10.151       0.074
 C          15.829      -8.999      -0.398
 C          14.351      -8.981      -0.423
 C          15.931      -1.409      -0.669
 C          13.601     -10.164       0.020
 C          14.456      -1.393      -0.708
 C          12.141     -10.167       0.088
 C          13.716      -2.639      -0.641
 C          11.607       3.716      -0.469
 C          11.404     -11.439       0.027
 C          12.239      -2.628      -0.514
 C          10.102       3.733      -0.408
 C           9.903     -11.403       0.085
 C          11.525      -3.869      -0.308
 C           9.415       2.500      -0.357
 C           9.219     -12.689       0.346
 C          20.290      -1.435      -0.094
 C          17.988     -10.237       0.183
 C          18.822      -1.420      -0.282
 C          16.528     -10.201       0.077
 C          18.105      -2.700      -0.379
 C          15.982       3.606      -0.072
 C          15.787     -11.413       0.416
 C          16.631      -2.675      -0.574
 C          14.503       3.623      -0.094
 C          14.303     -11.394       0.390
 C          13.778       2.390      -0.373
 C          13.549     -12.646       0.459
 C          15.881      -3.936      -0.650
 C          14.451      -3.920      -0.694
 C          12.326       2.434      -0.327
 C          12.112     -12.711       0.101
 C          13.690      -5.177      -0.557
 C          11.588       1.180      -0.310
 C          11.366     -13.975       0.213
 C          12.210      -5.141      -0.429
 C          10.112       1.207      -0.292
 C           9.906     -13.896       0.387
 C          20.950      -2.712       0.161
 C          18.693     -11.528       0.143
 C          20.253      -3.971       0.034
 C          18.140       2.354      -0.239
 C          17.947     -12.781       0.196
 C          18.776      -3.960      -0.149
 C          16.689       2.356      -0.336
 C          16.508     -12.680       0.513
 C          18.069      -5.211      -0.283
 C          15.964       1.128      -0.738
 C          15.748     -13.914       0.770
 C          16.594      -5.217      -0.497
 C          14.486       1.147      -0.755
 C          14.273     -13.900       0.741
 C          15.861      -6.458      -0.508
 C          13.736      -0.109      -0.749
 C          13.535     -15.188       0.688
 C          14.389      -6.446      -0.543
 C          12.287      -0.075      -0.514
 C          12.092     -15.155       0.509
 C          20.917      -5.231       0.262
 C          18.842       1.082      -0.185
 C          18.659     -14.067       0.290
 C          20.225      -6.495       0.096
 C          18.113      -0.154      -0.405
 C          17.891     -15.227       0.563
 C          18.762      -6.488      -0.091
 C          16.673      -0.145      -0.716
 C          16.450     -15.224       0.721
 C          18.017      -7.744      -0.141
 C          15.674     -16.466       0.697
 C          16.576      -7.737      -0.457
 C          14.278     -16.448       0.696
 C          20.910      -7.751       0.326
 C          20.181      -8.994       0.259
 C          18.708      -8.978       0.184
 C          20.881     -10.290       0.273
 C          20.187     -11.526       0.243
 C          11.472      -6.403      -0.260
 C          21.050       2.349      -0.194
 C          20.827     -12.831       0.497
 C          20.310       1.072      -0.118
 C          20.113     -14.020       0.495
 C          21.011      -0.188       0.028
 C          10.008      -6.377      -0.131
 C          10.049      -3.840      -0.215
 C          10.082      -1.305      -0.314
 C           9.376      -2.567      -0.109
 C           9.344      -5.098      -0.016
 C           9.280      -7.610       0.080
 C           9.382      -0.039      -0.194
