   142
 frame    434
 H          22.172       4.851      -0.067
 H          20.938       7.032      -0.099
 H          18.753       8.311      -0.074
 H          14.063       9.635      -0.055
 H          16.571       9.603      -0.037
 H           9.637       7.173      -0.196
 H           8.348       5.026      -0.217
 H          11.850       8.399      -0.126
 H           8.142     -10.125       0.251
 H           8.313       2.496      -0.186
 H           8.113     -12.652       0.384
 H           9.346     -14.828       0.525
 H          11.529     -16.106       0.629
 H          16.217     -17.428       0.736
 H          13.711     -17.396       0.717
 H          20.647     -14.970       0.637
 H          22.082      -2.727       0.249
 H          22.049      -5.248       0.355
 H          22.011      -7.770       0.426
 H          21.972     -10.296       0.489
 H          22.143       2.322       0.013
 H          21.936     -12.823       0.564
 H          18.431     -16.193       0.686
 H          22.114      -0.204       0.122
 H           8.238      -2.554      -0.062
 H           8.203      -5.077       0.031
 H           8.170      -7.600       0.134
 H           8.273      -0.032      -0.137
 C          18.890       3.556      -0.546
 C          20.370       3.555      -0.362
 C          21.079       4.860      -0.227
 C          16.728       4.876      -0.550
 C          18.181       4.846      -0.474
 C          18.904       6.127      -0.339
 C          20.416       6.075      -0.292
 C          12.353       4.918      -0.542
 C          13.802       4.909      -0.581
 C          14.551       6.170      -0.420
 C          16.003       6.152      -0.403
 C          16.732       7.394      -0.168
 C          18.172       7.356      -0.187
 C          11.648       6.216      -0.410
 C          12.414       7.425      -0.236
 C          13.859       7.424      -0.186
 C          14.609       8.675       0.009
 C          15.998       8.662       0.010
 C           9.441       5.004      -0.354
 C          10.139       6.205      -0.402
 C          13.624      -7.704      -0.043
 C          12.156      -7.647      -0.098
 C          11.425      -8.873      -0.296
 C           9.946      -8.878      -0.228
 C          11.486      -1.326      -0.128
 C           9.198     -10.147      -0.097
 C          15.817      -8.995      -0.066
 C          14.339      -8.975      -0.093
 C          15.925      -1.386      -0.223
 C          13.588     -10.197      -0.297
 C          14.435      -1.360      -0.255
 C          12.132     -10.145      -0.364
 C          13.698      -2.627      -0.288
 C          11.609       3.647      -0.630
 C          11.402     -11.392      -0.168
 C          12.226      -2.600      -0.074
 C          10.114       3.692      -0.505
 C           9.913     -11.371      -0.003
 C          11.492      -3.854       0.055
 C           9.375       2.476      -0.511
 C           9.212     -12.665       0.222
 C          20.323      -1.435       0.154
 C          18.007     -10.214      -0.269
 C          18.864      -1.406       0.025
 C          16.542     -10.230      -0.250
 C          18.094      -2.672       0.056
 C          15.992       3.632      -0.735
 C          15.787     -11.479      -0.281
 C          16.639      -2.669      -0.218
 C          14.515       3.645      -0.745
 C          14.312     -11.465      -0.306
 C          13.764       2.400      -0.672
 C          13.569     -12.697      -0.037
 C          15.872      -3.924      -0.252
 C          14.427      -3.906      -0.283
 C          12.306       2.371      -0.761
 C          12.115     -12.674       0.017
 C          13.656      -5.156      -0.198
 C          11.565       1.130      -0.631
 C          11.374     -13.946       0.241
 C          12.184      -5.129       0.008
 C          10.081       1.170      -0.560
 C           9.865     -13.890       0.252
 C          20.976      -2.712       0.315
 C          18.702     -11.477      -0.055
 C          20.273      -3.952       0.336
 C          18.165       2.301      -0.666
 C          17.951     -12.752       0.085
 C          18.790      -3.938       0.219
 C          16.704       2.366      -0.627
 C          16.499     -12.742      -0.012
 C          18.065      -5.203       0.144
 C          15.953       1.154      -0.357
 C          15.743     -13.990       0.188
 C          16.606      -5.190      -0.122
 C          14.473       1.171      -0.390
 C          14.284     -13.966       0.189
 C          15.856      -6.456      -0.044
 C          13.725      -0.074      -0.279
 C          13.553     -15.182       0.482
 C          14.370      -6.445      -0.081
 C          12.256      -0.097      -0.335
 C          12.112     -15.161       0.449
 C          20.937      -5.217       0.406
 C          18.870       1.035      -0.503
 C          18.644     -14.034       0.328
 C          20.248      -6.497       0.334
 C          18.130      -0.170      -0.227
 C          17.876     -15.237       0.506
 C          18.795      -6.482       0.187
 C          16.665      -0.114      -0.221
 C          16.440     -15.226       0.510
 C          18.029      -7.722       0.018
 C          15.665     -16.464       0.737
 C          16.563      -7.738       0.010
 C          14.281     -16.444       0.729
 C          20.915      -7.765       0.216
 C          20.222      -8.997      -0.031
 C          18.744      -8.957      -0.189
 C          20.926     -10.286       0.118
 C          20.180     -11.499       0.156
 C          11.422      -6.393       0.025
 C          21.086       2.327      -0.338
 C          20.844     -12.811       0.368
 C          20.353       1.031      -0.392
 C          20.156     -14.019       0.364
 C          21.020      -0.196      -0.068
 C           9.967      -6.373       0.113
 C          10.014      -3.831       0.113
 C          10.026      -1.303      -0.056
 C           9.338      -2.573       0.061
 C           9.311      -5.076       0.155
 C           9.272      -7.625      -0.020
 C           9.371      -0.049      -0.295
