   142
 frame    674
 H          22.172       4.851      -0.067
 H          20.938       7.032      -0.099
 H          18.753       8.311      -0.074
 H          14.063       9.635      -0.055
 H          16.571       9.603      -0.037
 H           9.637       7.173      -0.196
 H           8.348       5.026      -0.217
 H          11.850       8.399      -0.126
 H           8.142     -10.125       0.251
 H           8.313       2.496      -0.186
 H           8.113     -12.652       0.384
 H           9.346     -14.828       0.525
 H          11.529     -16.106       0.629
 H          16.217     -17.428       0.736
 H          13.711     -17.396       0.717
 H          20.647     -14.970       0.637
 H          22.082      -2.727       0.249
 H          22.049      -5.248       0.355
 H          22.011      -7.770       0.426
 H          21.972     -10.296       0.489
 H          22.143       2.322       0.013
 H          21.936     -12.823       0.564
 H          18.431     -16.193       0.686
 H          22.114      -0.204       0.122
 H           8.238      -2.554      -0.062
 H           8.203      -5.077       0.031
 H           8.170      -7.600       0.134
 H           8.273      -0.032      -0.137
 C          18.884       3.659       0.308
 C          20.363       3.619       0.165
 C          21.092       4.879       0.145
 C          16.711       4.952       0.339
 C          18.178       4.923       0.249
 C          18.941       6.154       0.182
 C          20.408       6.089       0.166
 C          12.336       4.994       0.200
 C          13.802       4.986       0.312
 C          14.526       6.244       0.483
 C          16.015       6.223       0.511
 C          16.783       7.463       0.314
 C          18.203       7.377       0.154
 C          11.604       6.246       0.125
 C          12.359       7.448       0.112
 C          13.794       7.499       0.294
 C          14.605       8.701       0.082
 C          16.001       8.686       0.101
 C           9.420       5.022       0.012
 C          10.138       6.214       0.076
 C          13.609      -7.672       0.344
 C          12.159      -7.660       0.288
 C          11.423      -8.922       0.424
 C           9.926      -8.875       0.310
 C          11.528      -1.340      -0.029
 C           9.255     -10.148       0.317
 C          15.821      -8.949       0.519
 C          14.324      -8.929       0.489
 C          15.923      -1.392       0.098
 C          13.598     -10.173       0.752
 C          14.434      -1.374       0.080
 C          12.141     -10.160       0.702
 C          13.720      -2.626      -0.003
 C          11.602       3.749       0.221
 C          11.398     -11.437       0.739
 C          12.249      -2.611       0.067
 C          10.119       3.746       0.035
 C           9.912     -11.407       0.555
 C          11.508      -3.856       0.091
 C           9.417       2.500      -0.125
 C           9.183     -12.659       0.618
 C          20.287      -1.461       0.222
 C          17.967     -10.226       0.819
 C          18.828      -1.435       0.118
 C          16.507     -10.209       0.796
 C          18.073      -2.682       0.196
 C          15.976       3.664       0.307
 C          15.772     -11.469       0.835
 C          16.602      -2.666       0.056
 C          14.507       3.689       0.277
 C          14.313     -11.445       0.820
 C          13.774       2.422       0.307
 C          13.579     -12.722       0.888
 C          15.873      -3.932      -0.037
 C          14.427      -3.915      -0.069
 C          12.313       2.454       0.268
 C          12.104     -12.697       0.769
 C          13.678      -5.166       0.084
 C          11.566       1.229       0.052
 C          11.330     -13.942       0.768
 C          12.215      -5.125       0.184
 C          10.062       1.209      -0.045
 C           9.869     -13.863       0.731
 C          20.961      -2.725       0.175
 C          18.682     -11.535       0.837
 C          20.258      -3.966       0.287
 C          18.131       2.380       0.334
 C          17.937     -12.780       0.840
 C          18.781      -3.952       0.262
 C          16.672       2.386       0.325
 C          16.461     -12.767       0.921
 C          18.040      -5.201       0.315
 C          15.943       1.131       0.145
 C          15.742     -14.014       1.135
 C          16.575      -5.202       0.145
 C          14.464       1.150       0.142
 C          14.266     -13.993       1.113
 C          15.851      -6.444       0.310
 C          13.714      -0.109       0.078
 C          13.508     -15.240       0.979
 C          14.374      -6.428       0.265
 C          12.272      -0.068       0.012
 C          12.070     -15.162       0.809
 C          20.932      -5.233       0.300
 C          18.850       1.130       0.177
 C          18.682     -14.035       0.848
 C          20.212      -6.463       0.426
 C          18.119      -0.135       0.111
 C          17.910     -15.233       0.852
 C          18.755      -6.465       0.333
 C          16.668      -0.131       0.114
 C          16.470     -15.273       1.000
 C          18.018      -7.736       0.404
 C          15.670     -16.490       0.817
 C          16.573      -7.709       0.397
 C          14.280     -16.470       0.811
 C          20.912      -7.737       0.474
 C          20.216      -8.997       0.531
 C          18.717      -9.013       0.582
 C          20.865     -10.284       0.520
 C          20.173     -11.539       0.710
 C          11.465      -6.370       0.166
 C          21.039       2.350       0.061
 C          20.862     -12.806       0.784
 C          20.358       1.076       0.131
 C          20.145     -13.996       0.852
 C          21.018      -0.212       0.170
 C          10.007      -6.342       0.206
 C          10.035      -3.834       0.056
 C          10.065      -1.332       0.010
 C           9.356      -2.570      -0.075
 C           9.323      -5.086       0.027
 C           9.266      -7.594       0.225
 C           9.371      -0.063      -0.040
