   142
 frame    572
 H          22.172       4.851      -0.067
 H          20.938       7.032      -0.099
 H          18.753       8.311      -0.074
 H          14.063       9.635      -0.055
 H          16.571       9.603      -0.037
 H           9.637       7.173      -0.196
 H           8.348       5.026      -0.217
 H          11.850       8.399      -0.126
 H           8.142     -10.125       0.251
 H           8.313       2.496      -0.186
 H           8.113     -12.652       0.384
 H           9.346     -14.828       0.525
 H          11.529     -16.106       0.629
 H          16.217     -17.428       0.736
 H          13.711     -17.396       0.717
 H          20.647     -14.970       0.637
 H          22.082      -2.727       0.249
 H          22.049      -5.248       0.355
 H          22.011      -7.770       0.426
 H          21.972     -10.296       0.489
 H          22.143       2.322       0.013
 H          21.936     -12.823       0.564
 H          18.431     -16.193       0.686
 H          22.114      -0.204       0.122
 H           8.238      -2.554      -0.062
 H           8.203      -5.077       0.031
 H           8.170      -7.600       0.134
 H           8.273      -0.032      -0.137
 C          18.868       3.655      -0.058
 C          20.354       3.606       0.053
 C          21.080       4.915       0.005
 C          16.702       4.903      -0.184
 C          18.162       4.923      -0.047
 C          18.913       6.165       0.057
 C          20.384       6.100       0.074
 C          12.355       4.997      -0.110
 C          13.808       4.950      -0.219
 C          14.559       6.185      -0.250
 C          15.999       6.164      -0.244
 C          16.770       7.398      -0.119
 C          18.205       7.381       0.032
 C          11.633       6.259      -0.012
 C          12.373       7.455      -0.026
 C          13.814       7.443      -0.167
 C          14.601       8.663      -0.144
 C          16.011       8.642      -0.123
 C           9.440       5.057      -0.109
 C          10.159       6.233      -0.014
 C          13.630      -7.612       0.396
 C          12.170      -7.619       0.297
 C          11.444      -8.891       0.269
 C           9.967      -8.881       0.171
 C          11.552      -1.333      -0.182
 C           9.243     -10.150       0.292
 C          15.824      -8.920       0.579
 C          14.321      -8.899       0.547
 C          15.903      -1.398      -0.135
 C          13.593     -10.143       0.433
 C          14.460      -1.381      -0.179
 C          12.150     -10.172       0.273
 C          13.726      -2.616      -0.242
 C          11.620       3.748      -0.156
 C          11.411     -11.457       0.333
 C          12.262      -2.609      -0.355
 C          10.130       3.737      -0.095
 C           9.919     -11.395       0.419
 C          11.517      -3.861      -0.242
 C           9.417       2.502      -0.129
 C           9.209     -12.703       0.470
 C          20.288      -1.433      -0.066
 C          17.975     -10.247       0.359
 C          18.799      -1.425      -0.065
 C          16.525     -10.184       0.485
 C          18.078      -2.682      -0.243
 C          15.977       3.640      -0.110
 C          15.781     -11.453       0.393
 C          16.608      -2.658      -0.170
 C          14.512       3.660      -0.126
 C          14.305     -11.437       0.385
 C          13.772       2.401       0.022
 C          13.580     -12.713       0.362
 C          15.883      -3.917      -0.060
 C          14.414      -3.907      -0.095
 C          12.321       2.455      -0.135
 C          12.114     -12.724       0.464
 C          13.683      -5.175      -0.162
 C          11.584       1.193      -0.053
 C          11.366     -13.963       0.642
 C          12.218      -5.142      -0.257
 C          10.102       1.207      -0.165
 C           9.894     -13.888       0.648
 C          20.956      -2.696       0.155
 C          18.672     -11.548       0.443
 C          20.248      -3.968       0.104
 C          18.135       2.373      -0.053
 C          17.935     -12.795       0.540
 C          18.789      -3.954      -0.107
 C          16.683       2.357       0.066
 C          16.474     -12.739       0.385
 C          18.056      -5.218      -0.135
 C          15.957       1.129       0.240
 C          15.726     -13.985       0.404
 C          16.582      -5.210      -0.106
 C          14.453       1.140       0.216
 C          14.294     -13.973       0.393
 C          15.837      -6.439       0.030
 C          13.736      -0.145       0.145
 C          13.510     -15.196       0.558
 C          14.382      -6.423       0.003
 C          12.275      -0.105       0.050
 C          12.071     -15.173       0.673
 C          20.920      -5.258       0.241
 C          18.832       1.102       0.045
 C          18.653     -14.052       0.735
 C          20.210      -6.514       0.122
 C          18.113      -0.175       0.131
 C          17.910     -15.245       0.737
 C          18.731      -6.472       0.143
 C          16.649      -0.181       0.186
 C          16.483     -15.233       0.578
 C          18.016      -7.693       0.390
 C          15.686     -16.454       0.630
 C          16.550      -7.649       0.454
 C          14.272     -16.432       0.618
 C          20.921      -7.774       0.236
 C          20.191      -9.007       0.358
 C          18.710      -8.978       0.382
 C          20.878     -10.298       0.498
 C          20.162     -11.524       0.581
 C          11.490      -6.380       0.009
 C          21.040       2.357       0.042
 C          20.839     -12.833       0.628
 C          20.322       1.072       0.002
 C          20.115     -14.008       0.759
 C          21.029      -0.182      -0.037
 C          10.014      -6.387      -0.093
 C          10.046      -3.840      -0.106
 C          10.070      -1.302      -0.265
 C           9.365      -2.547      -0.093
 C           9.337      -5.110      -0.006
 C           9.267      -7.632       0.002
 C           9.367      -0.034      -0.256
