   142
 frame    430
 H          22.172       4.851      -0.067
 H          20.938       7.032      -0.099
 H          18.753       8.311      -0.074
 H          14.063       9.635      -0.055
 H          16.571       9.603      -0.037
 H           9.637       7.173      -0.196
 H           8.348       5.026      -0.217
 H          11.850       8.399      -0.126
 H           8.142     -10.125       0.251
 H           8.313       2.496      -0.186
 H           8.113     -12.652       0.384
 H           9.346     -14.828       0.525
 H          11.529     -16.106       0.629
 H          16.217     -17.428       0.736
 H          13.711     -17.396       0.717
 H          20.647     -14.970       0.637
 H          22.082      -2.727       0.249
 H          22.049      -5.248       0.355
 H          22.011      -7.770       0.426
 H          21.972     -10.296       0.489
 H          22.143       2.322       0.013
 H          21.936     -12.823       0.564
 H          18.431     -16.193       0.686
 H          22.114      -0.204       0.122
 H           8.238      -2.554      -0.062
 H           8.203      -5.077       0.031
 H           8.170      -7.600       0.134
 H           8.273      -0.032      -0.137
 C          18.910       3.560      -0.569
 C          20.369       3.550      -0.345
 C          21.067       4.854      -0.219
 C          16.720       4.884      -0.533
 C          18.173       4.850      -0.489
 C          18.902       6.140      -0.366
 C          20.417       6.077      -0.306
 C          12.358       4.919      -0.555
 C          13.812       4.915      -0.557
 C          14.555       6.165      -0.434
 C          15.998       6.148      -0.415
 C          16.726       7.381      -0.198
 C          18.182       7.359      -0.221
 C          11.648       6.236      -0.442
 C          12.401       7.427      -0.274
 C          13.859       7.415      -0.210
 C          14.604       8.662      -0.002
 C          16.005       8.644       0.003
 C           9.456       5.002      -0.345
 C          10.139       6.206      -0.413
 C          13.638      -7.710      -0.042
 C          12.160      -7.635      -0.041
 C          11.415      -8.872      -0.282
 C           9.943      -8.862      -0.229
 C          11.477      -1.328      -0.134
 C           9.209     -10.135      -0.075
 C          15.817      -9.003      -0.068
 C          14.340      -8.981      -0.095
 C          15.925      -1.386      -0.234
 C          13.579     -10.188      -0.336
 C          14.439      -1.362      -0.268
 C          12.116     -10.149      -0.386
 C          13.685      -2.630      -0.311
 C          11.588       3.653      -0.660
 C          11.380     -11.402      -0.195
 C          12.219      -2.599      -0.079
 C          10.117       3.685      -0.493
 C           9.917     -11.364       0.010
 C          11.472      -3.857       0.002
 C           9.385       2.470      -0.488
 C           9.221     -12.661       0.230
 C          20.327      -1.438       0.115
 C          18.019     -10.221      -0.291
 C          18.871      -1.410       0.024
 C          16.554     -10.216      -0.290
 C          18.109      -2.668       0.048
 C          15.990       3.635      -0.716
 C          15.788     -11.479      -0.257
 C          16.651      -2.671      -0.235
 C          14.518       3.645      -0.726
 C          14.312     -11.461      -0.285
 C          13.765       2.388      -0.712
 C          13.581     -12.699      -0.018
 C          15.891      -3.916      -0.223
 C          14.408      -3.904      -0.253
 C          12.298       2.381      -0.775
 C          12.115     -12.680       0.003
 C          13.644      -5.161      -0.219
 C          11.557       1.133      -0.614
 C          11.374     -13.964       0.213
 C          12.175      -5.137       0.009
 C          10.078       1.156      -0.564
 C           9.867     -13.894       0.232
 C          20.986      -2.689       0.314
 C          18.724     -11.488      -0.082
 C          20.295      -3.952       0.313
 C          18.173       2.307      -0.685
 C          17.951     -12.756       0.075
 C          18.812      -3.942       0.166
 C          16.711       2.355      -0.662
 C          16.488     -12.742       0.005
 C          18.080      -5.215       0.141
 C          15.950       1.163      -0.361
 C          15.738     -13.983       0.174
 C          16.621      -5.195      -0.138
 C          14.473       1.181      -0.393
 C          14.288     -13.960       0.178
 C          15.858      -6.459      -0.058
 C          13.742      -0.070      -0.278
 C          13.552     -15.177       0.450
 C          14.368      -6.446      -0.094
 C          12.256      -0.104      -0.279
 C          12.104     -15.165       0.413
 C          20.944      -5.237       0.403
 C          18.873       1.038      -0.489
 C          18.648     -14.050       0.297
 C          20.259      -6.497       0.296
 C          18.132      -0.174      -0.176
 C          17.887     -15.242       0.472
 C          18.801      -6.480       0.186
 C          16.647      -0.115      -0.216
 C          16.440     -15.219       0.478
 C          18.025      -7.705       0.071
 C          15.671     -16.447       0.732
 C          16.551      -7.741       0.013
 C          14.272     -16.430       0.724
 C          20.925      -7.748       0.163
 C          20.226      -8.984      -0.038
 C          18.751      -8.955      -0.168
 C          20.912     -10.274       0.137
 C          20.179     -11.487       0.169
 C          11.410      -6.392       0.022
 C          21.073       2.319      -0.313
 C          20.830     -12.808       0.378
 C          20.359       1.022      -0.398
 C          20.154     -14.028       0.346
 C          21.028      -0.215      -0.123
 C           9.957      -6.369       0.073
 C           9.996      -3.830       0.089
 C          10.022      -1.306      -0.096
 C           9.333      -2.552       0.052
 C           9.300      -5.096       0.150
 C           9.265      -7.612      -0.080
 C           9.364      -0.063      -0.352
