   142
 frame    609
 H          22.172       4.851      -0.067
 H          20.938       7.032      -0.099
 H          18.753       8.311      -0.074
 H          14.063       9.635      -0.055
 H          16.571       9.603      -0.037
 H           9.637       7.173      -0.196
 H           8.348       5.026      -0.217
 H          11.850       8.399      -0.126
 H           8.142     -10.125       0.251
 H           8.313       2.496      -0.186
 H           8.113     -12.652       0.384
 H           9.346     -14.828       0.525
 H          11.529     -16.106       0.629
 H          16.217     -17.428       0.736
 H          13.711     -17.396       0.717
 H          20.647     -14.970       0.637
 H          22.082      -2.727       0.249
 H          22.049      -5.248       0.355
 H          22.011      -7.770       0.426
 H          21.972     -10.296       0.489
 H          22.143       2.322       0.013
 H          21.936     -12.823       0.564
 H          18.431     -16.193       0.686
 H          22.114      -0.204       0.122
 H           8.238      -2.554      -0.062
 H           8.203      -5.077       0.031
 H           8.170      -7.600       0.134
 H           8.273      -0.032      -0.137
 C          18.887       3.602       0.105
 C          20.351       3.554      -0.032
 C          21.061       4.833      -0.098
 C          16.700       4.888       0.204
 C          18.139       4.849       0.028
 C          18.927       6.104      -0.210
 C          20.404       6.054      -0.175
 C          12.366       4.923      -0.037
 C          13.821       4.918       0.152
 C          14.531       6.177       0.102
 C          16.012       6.162       0.111
 C          16.795       7.389      -0.058
 C          18.231       7.345      -0.216
 C          11.622       6.194      -0.280
 C          12.352       7.415      -0.261
 C          13.785       7.419      -0.080
 C          14.594       8.650      -0.076
 C          16.008       8.636      -0.075
 C           9.461       4.982      -0.218
 C          10.142       6.187      -0.284
 C          13.634      -7.610       0.350
 C          12.179      -7.603       0.189
 C          11.404      -8.834       0.303
 C           9.934      -8.837       0.225
 C          11.518      -1.367      -0.068
 C           9.258     -10.104       0.229
 C          15.799      -8.870       0.542
 C          14.348      -8.854       0.519
 C          15.919      -1.422       0.101
 C          13.589     -10.123       0.683
 C          14.434      -1.405       0.072
 C          12.095     -10.108       0.574
 C          13.689      -2.646      -0.209
 C          11.594       3.690       0.031
 C          11.399     -11.386       0.521
 C          12.229      -2.625      -0.172
 C          10.134       3.679      -0.150
 C           9.934     -11.353       0.347
 C          11.481      -3.859      -0.155
 C           9.429       2.445      -0.191
 C           9.226     -12.646       0.371
 C          20.317      -1.443       0.052
 C          18.014     -10.181       0.671
 C          18.839      -1.454       0.081
 C          16.521     -10.163       0.721
 C          18.100      -2.695      -0.061
 C          15.970       3.610       0.297
 C          15.769     -11.406       0.782
 C          16.641      -2.675      -0.175
 C          14.507       3.631       0.278
 C          14.307     -11.385       0.759
 C          13.753       2.384       0.257
 C          13.581     -12.668       0.720
 C          15.903      -3.932      -0.427
 C          14.404      -3.910      -0.450
 C          12.267       2.398       0.145
 C          12.137     -12.647       0.532
 C          13.655      -5.137      -0.121
 C          11.532       1.129      -0.034
 C          11.360     -13.905       0.362
 C          12.194      -5.124      -0.096
 C          10.064       1.156      -0.127
 C           9.883     -13.866       0.373
 C          20.998      -2.704       0.035
 C          18.679     -11.483       0.628
 C          20.291      -3.972      -0.058
 C          18.182       2.327       0.231
 C          17.908     -12.723       0.609
 C          18.811      -3.956      -0.011
 C          16.686       2.353       0.300
 C          16.467     -12.711       0.776
 C          18.064      -5.193       0.031
 C          15.934       1.061       0.189
 C          15.752     -13.967       0.763
 C          16.607      -5.175      -0.063
 C          14.483       1.085       0.166
 C          14.264     -13.941       0.741
 C          15.851      -6.391       0.288
 C          13.740      -0.149       0.081
 C          13.486     -15.176       0.641
 C          14.362      -6.377       0.265
 C          12.276      -0.124      -0.070
 C          12.051     -15.143       0.460
 C          20.954      -5.251       0.148
 C          18.885       1.033       0.084
 C          18.651     -14.001       0.447
 C          20.238      -6.488       0.258
 C          18.107      -0.200       0.048
 C          17.939     -15.222       0.512
 C          18.771      -6.437       0.243
 C          16.636      -0.181       0.125
 C          16.501     -15.213       0.675
 C          18.003      -7.669       0.308
 C          15.680     -16.435       0.688
 C          16.540      -7.643       0.403
 C          14.264     -16.418       0.676
 C          20.916      -7.745       0.450
 C          20.218      -8.969       0.407
 C          18.748      -8.925       0.447
 C          20.862     -10.251       0.417
 C          20.139     -11.477       0.496
 C          11.449      -6.350       0.109
 C          21.021       2.299      -0.041
 C          20.824     -12.777       0.528
 C          20.348       1.028       0.040
 C          20.143     -13.986       0.505
 C          21.024      -0.202       0.157
 C           9.979      -6.363       0.036
 C          10.009      -3.843      -0.278
 C          10.039      -1.319      -0.134
 C           9.325      -2.559      -0.209
 C           9.303      -5.109      -0.105
 C           9.263      -7.597       0.223
 C           9.355      -0.056      -0.034
