   142
 frame    212
 H          22.172       4.851      -0.067
 H          20.938       7.032      -0.099
 H          18.753       8.311      -0.074
 H          14.063       9.635      -0.055
 H          16.571       9.603      -0.037
 H           9.637       7.173      -0.196
 H           8.348       5.026      -0.217
 H          11.850       8.399      -0.126
 H           8.142     -10.125       0.251
 H           8.313       2.496      -0.186
 H           8.113     -12.652       0.384
 H           9.346     -14.828       0.525
 H          11.529     -16.106       0.629
 H          16.217     -17.428       0.736
 H          13.711     -17.396       0.717
 H          20.647     -14.970       0.637
 H          22.082      -2.727       0.249
 H          22.049      -5.248       0.355
 H          22.011      -7.770       0.426
 H          21.972     -10.296       0.489
 H          22.143       2.322       0.013
 H          21.936     -12.823       0.564
 H          18.431     -16.193       0.686
 H          22.114      -0.204       0.122
 H           8.238      -2.554      -0.062
 H           8.203      -5.077       0.031
 H           8.170      -7.600       0.134
 H           8.273      -0.032      -0.137
 C          18.867       3.596      -0.137
 C          20.343       3.555      -0.099
 C          21.077       4.848      -0.178
 C          16.677       4.875       0.082
 C          18.148       4.848       0.032
 C          18.903       6.104      -0.094
 C          20.383       6.053      -0.217
 C          12.367       4.918      -0.041
 C          13.831       4.910       0.039
 C          14.553       6.179       0.141
 C          15.990       6.165       0.156
 C          16.741       7.415       0.091
 C          18.188       7.343      -0.045
 C          11.650       6.194      -0.153
 C          12.398       7.417      -0.104
 C          13.835       7.450       0.077
 C          14.607       8.699       0.094
 C          16.000       8.679       0.094
 C           9.451       4.993      -0.293
 C          10.177       6.181      -0.314
 C          13.651      -7.695      -0.286
 C          12.160      -7.663      -0.287
 C          11.424      -8.907      -0.247
 C           9.958      -8.872      -0.057
 C          11.518      -1.341      -0.479
 C           9.262     -10.111       0.225
 C          15.820      -8.973      -0.028
 C          14.336      -8.955      -0.057
 C          15.914      -1.399      -0.673
 C          13.608     -10.206      -0.006
 C          14.464      -1.378      -0.702
 C          12.154     -10.171      -0.066
 C          13.708      -2.636      -0.625
 C          11.625       3.686      -0.237
 C          11.425     -11.397       0.264
 C          12.224      -2.604      -0.485
 C          10.146       3.683      -0.224
 C           9.950     -11.359       0.285
 C          11.472      -3.868      -0.400
 C           9.430       2.446      -0.213
 C           9.229     -12.657       0.281
 C          20.325      -1.442      -0.182
 C          17.979     -10.240       0.043
 C          18.852      -1.430      -0.323
 C          16.524     -10.241       0.051
 C          18.104      -2.675      -0.347
 C          15.961       3.619      -0.196
 C          15.762     -11.457       0.307
 C          16.641      -2.675      -0.582
 C          14.522       3.641      -0.211
 C          14.319     -11.441       0.281
 C          13.775       2.406      -0.432
 C          13.596     -12.663       0.622
 C          15.899      -3.929      -0.566
 C          14.407      -3.910      -0.596
 C          12.313       2.409      -0.481
 C          12.128     -12.633       0.530
 C          13.670      -5.164      -0.547
 C          11.557       1.160      -0.590
 C          11.390     -13.908       0.469
 C          12.189      -5.154      -0.403
 C          10.094       1.169      -0.398
 C           9.924     -13.865       0.329
 C          20.991      -2.704      -0.031
 C          18.663     -11.489       0.370
 C          20.275      -3.971      -0.083
 C          18.156       2.343      -0.410
 C          17.918     -12.710       0.605
 C          18.833      -3.954      -0.225
 C          16.697       2.373      -0.381
 C          16.445     -12.701       0.647
 C          18.073      -5.228      -0.270
 C          15.960       1.136      -0.359
 C          15.719     -13.967       0.800
 C          16.603      -5.195      -0.481
 C          14.474       1.154      -0.392
 C          14.289     -13.949       0.792
 C          15.845      -6.455      -0.501
 C          13.751      -0.101      -0.526
 C          13.541     -15.201       0.769
 C          14.396      -6.439      -0.535
 C          12.262      -0.101      -0.551
 C          12.104     -15.146       0.588
 C          20.955      -5.257       0.070
 C          18.880       1.069      -0.473
 C          18.630     -13.994       0.567
 C          20.262      -6.512       0.015
 C          18.143      -0.168      -0.442
 C          17.883     -15.212       0.643
 C          18.785      -6.488      -0.137
 C          16.656      -0.137      -0.468
 C          16.437     -15.235       0.796
 C          18.038      -7.735      -0.171
 C          15.669     -16.486       0.849
 C          16.549      -7.725      -0.212
 C          14.278     -16.471       0.832
 C          20.933      -7.791       0.113
 C          20.205      -9.004       0.134
 C          18.744      -8.999      -0.106
 C          20.859     -10.261       0.427
 C          20.140     -11.489       0.445
 C          11.450      -6.394      -0.300
 C          21.025       2.306      -0.039
 C          20.830     -12.796       0.437
 C          20.344       1.048      -0.237
 C          20.103     -13.984       0.456
 C          21.037      -0.179      -0.186
 C           9.972      -6.386      -0.213
 C          10.024      -3.847      -0.312
 C          10.045      -1.319      -0.390
 C           9.345      -2.558      -0.282
 C           9.312      -5.106      -0.196
 C           9.265      -7.646      -0.132
 C           9.370      -0.043      -0.398
