   142
 frame    539
 H          22.172       4.851      -0.067
 H          20.938       7.032      -0.099
 H          18.753       8.311      -0.074
 H          14.063       9.635      -0.055
 H          16.571       9.603      -0.037
 H           9.637       7.173      -0.196
 H           8.348       5.026      -0.217
 H          11.850       8.399      -0.126
 H           8.142     -10.125       0.251
 H           8.313       2.496      -0.186
 H           8.113     -12.652       0.384
 H           9.346     -14.828       0.525
 H          11.529     -16.106       0.629
 H          16.217     -17.428       0.736
 H          13.711     -17.396       0.717
 H          20.647     -14.970       0.637
 H          22.082      -2.727       0.249
 H          22.049      -5.248       0.355
 H          22.011      -7.770       0.426
 H          21.972     -10.296       0.489
 H          22.143       2.322       0.013
 H          21.936     -12.823       0.564
 H          18.431     -16.193       0.686
 H          22.114      -0.204       0.122
 H           8.238      -2.554      -0.062
 H           8.203      -5.077       0.031
 H           8.170      -7.600       0.134
 H           8.273      -0.032      -0.137
 C          18.888       3.561       0.010
 C          20.387       3.551       0.027
 C          21.061       4.868      -0.006
 C          16.743       4.881      -0.316
 C          18.171       4.826      -0.068
 C          18.882       6.104      -0.014
 C          20.363       6.074      -0.002
 C          12.341       4.895      -0.137
 C          13.788       4.913      -0.350
 C          14.544       6.147      -0.379
 C          16.012       6.130      -0.362
 C          16.732       7.381      -0.212
 C          18.157       7.334      -0.063
 C          11.671       6.182      -0.099
 C          12.422       7.402      -0.106
 C          13.846       7.418      -0.228
 C          14.609       8.650      -0.098
 C          16.002       8.631      -0.100
 C           9.454       5.011      -0.149
 C          10.191       6.194      -0.114
 C          13.618      -7.662       0.007
 C          12.159      -7.643      -0.094
 C          11.442      -8.879       0.172
 C           9.954      -8.844       0.240
 C          11.523      -1.349      -0.260
 C           9.233     -10.097       0.271
 C          15.805      -8.954       0.109
 C          14.354      -8.927       0.112
 C          15.917      -1.374      -0.022
 C          13.629     -10.208       0.195
 C          14.440      -1.350      -0.022
 C          12.167     -10.134       0.324
 C          13.696      -2.631      -0.049
 C          11.590       3.650      -0.083
 C          11.391     -11.355       0.405
 C          12.224      -2.602      -0.144
 C          10.102       3.675      -0.104
 C           9.906     -11.338       0.392
 C          11.471      -3.865      -0.146
 C           9.402       2.445      -0.151
 C           9.232     -12.661       0.437
 C          20.296      -1.455       0.084
 C          17.946     -10.210       0.411
 C          18.847      -1.443      -0.123
 C          16.495     -10.249       0.234
 C          18.102      -2.678      -0.032
 C          15.972       3.641      -0.326
 C          15.761     -11.476       0.175
 C          16.629      -2.663      -0.008
 C          14.525       3.658      -0.338
 C          14.321     -11.455       0.155
 C          13.786       2.433      -0.212
 C          13.559     -12.697       0.231
 C          15.881      -3.915      -0.085
 C          14.412      -3.893      -0.107
 C          12.336       2.402      -0.087
 C          12.122     -12.627       0.443
 C          13.664      -5.131       0.037
 C          11.572       1.156      -0.172
 C          11.412     -13.900       0.556
 C          12.196      -5.138      -0.064
 C          10.080       1.160      -0.091
 C           9.936     -13.861       0.537
 C          20.986      -2.704       0.086
 C          18.691     -11.450       0.515
 C          20.302      -3.971       0.049
 C          18.116       2.340      -0.012
 C          17.934     -12.704       0.513
 C          18.830      -3.956       0.008
 C          16.673       2.403      -0.183
 C          16.501     -12.731       0.271
 C          18.073      -5.208       0.037
 C          15.947       1.122      -0.199
 C          15.745     -13.962       0.288
 C          16.602      -5.165       0.089
 C          14.486       1.142      -0.214
 C          14.275     -13.947       0.260
 C          15.855      -6.448       0.149
 C          13.727      -0.118      -0.227
 C          13.541     -15.184       0.452
 C          14.369      -6.429       0.125
 C          12.259      -0.112      -0.338
 C          12.125     -15.137       0.595
 C          20.946      -5.244       0.198
 C          18.859       1.071      -0.047
 C          18.599     -13.997       0.619
 C          20.220      -6.477       0.257
 C          18.144      -0.183      -0.235
 C          17.858     -15.214       0.642
 C          18.782      -6.474       0.036
 C          16.673      -0.152      -0.184
 C          16.434     -15.224       0.475
 C          18.041      -7.715       0.012
 C          15.672     -16.446       0.626
 C          16.573      -7.702       0.048
 C          14.283     -16.427       0.609
 C          20.897      -7.739       0.405
 C          20.196      -8.978       0.436
 C          18.712      -8.967       0.305
 C          20.882     -10.252       0.468
 C          20.178     -11.472       0.547
 C          11.456      -6.383      -0.111
 C          21.053       2.294       0.028
 C          20.814     -12.811       0.594
 C          20.345       1.040       0.074
 C          20.080     -13.991       0.652
 C          21.009      -0.213       0.111
 C           9.999      -6.356       0.061
 C           9.998      -3.843      -0.185
 C          10.067      -1.329      -0.117
 C           9.343      -2.564      -0.157
 C           9.311      -5.105      -0.065
 C           9.283      -7.599       0.172
 C           9.377      -0.068      -0.099
