   142
 frame    645
 H          22.172       4.851      -0.067
 H          20.938       7.032      -0.099
 H          18.753       8.311      -0.074
 H          14.063       9.635      -0.055
 H          16.571       9.603      -0.037
 H           9.637       7.173      -0.196
 H           8.348       5.026      -0.217
 H          11.850       8.399      -0.126
 H           8.142     -10.125       0.251
 H           8.313       2.496      -0.186
 H           8.113     -12.652       0.384
 H           9.346     -14.828       0.525
 H          11.529     -16.106       0.629
 H          16.217     -17.428       0.736
 H          13.711     -17.396       0.717
 H          20.647     -14.970       0.637
 H          22.082      -2.727       0.249
 H          22.049      -5.248       0.355
 H          22.011      -7.770       0.426
 H          21.972     -10.296       0.489
 H          22.143       2.322       0.013
 H          21.936     -12.823       0.564
 H          18.431     -16.193       0.686
 H          22.114      -0.204       0.122
 H           8.238      -2.554      -0.062
 H           8.203      -5.077       0.031
 H           8.170      -7.600       0.134
 H           8.273      -0.032      -0.137
 C          18.882       3.580       0.061
 C          20.348       3.566      -0.044
 C          21.049       4.876      -0.154
 C          16.714       4.833       0.346
 C          18.172       4.848       0.139
 C          18.864       6.114       0.061
 C          20.334       6.071      -0.159
 C          12.343       4.921       0.080
 C          13.775       4.869       0.330
 C          14.545       6.111       0.225
 C          15.991       6.093       0.228
 C          16.719       7.368       0.142
 C          18.157       7.353       0.081
 C          11.684       6.210       0.002
 C          12.421       7.433       0.036
 C          13.856       7.401       0.119
 C          14.610       8.656       0.058
 C          15.999       8.638       0.067
 C           9.477       5.027      -0.287
 C          10.224       6.197      -0.251
 C          13.644      -7.673       0.218
 C          12.190      -7.616       0.296
 C          11.449      -8.847       0.543
 C           9.970      -8.853       0.421
 C          11.547      -1.335      -0.080
 C           9.244     -10.129       0.415
 C          15.796      -8.913       0.647
 C          14.339      -8.898       0.610
 C          15.903      -1.371      -0.193
 C          13.613     -10.127       0.753
 C          14.463      -1.346      -0.228
 C          12.153     -10.107       0.578
 C          13.719      -2.602      -0.056
 C          11.605       3.666      -0.029
 C          11.395     -11.369       0.478
 C          12.241      -2.605      -0.175
 C          10.139       3.690      -0.177
 C           9.940     -11.366       0.334
 C          11.510      -3.877      -0.118
 C           9.409       2.478      -0.030
 C           9.245     -12.683       0.306
 C          20.290      -1.405       0.119
 C          17.954     -10.182       0.679
 C          18.818      -1.427       0.046
 C          16.486     -10.162       0.811
 C          18.087      -2.682      -0.060
 C          15.949       3.599       0.495
 C          15.752     -11.397       1.016
 C          16.614      -2.643      -0.001
 C          14.510       3.618       0.492
 C          14.308     -11.378       0.982
 C          13.788       2.372       0.333
 C          13.548     -12.613       0.905
 C          15.882      -3.904       0.241
 C          14.404      -3.881       0.206
 C          12.320       2.392       0.152
 C          12.102     -12.631       0.658
 C          13.685      -5.171       0.059
 C          11.584       1.150       0.196
 C          11.415     -13.910       0.639
 C          12.211      -5.147      -0.082
 C          10.100       1.189       0.061
 C           9.954     -13.879       0.400
 C          20.946      -2.695       0.269
 C          18.678     -11.457       0.598
 C          20.248      -3.963       0.206
 C          18.125       2.321       0.241
 C          17.934     -12.702       0.734
 C          18.783      -3.959       0.028
 C          16.660       2.332       0.374
 C          16.482     -12.649       0.942
 C          18.046      -5.219       0.033
 C          15.932       1.109       0.291
 C          15.732     -13.887       0.868
 C          16.576      -5.206       0.107
 C          14.479       1.129       0.256
 C          14.284     -13.878       0.869
 C          15.837      -6.468      -0.008
 C          13.750      -0.096      -0.059
 C          13.555     -15.147       0.794
 C          14.401      -6.447      -0.034
 C          12.302      -0.112       0.015
 C          12.124     -15.143       0.729
 C          20.916      -5.239       0.349
 C          18.824       1.066       0.292
 C          18.599     -13.998       0.718
 C          20.225      -6.527       0.322
 C          18.089      -0.186       0.108
 C          17.857     -15.219       0.791
 C          18.746      -6.480       0.245
 C          16.653      -0.132      -0.009
 C          16.422     -15.179       0.831
 C          17.990      -7.682       0.418
 C          15.671     -16.438       0.808
 C          16.547      -7.711       0.274
 C          14.280     -16.426       0.798
 C          20.923      -7.781       0.466
 C          20.173      -8.990       0.616
 C          18.691      -8.937       0.669
 C          20.867     -10.282       0.619
 C          20.150     -11.491       0.491
 C          11.477      -6.392       0.097
 C          21.040       2.339       0.131
 C          20.807     -12.825       0.443
 C          20.316       1.067       0.224
 C          20.057     -14.001       0.504
 C          21.026      -0.173       0.164
 C           9.998      -6.408       0.089
 C          10.031      -3.839      -0.028
 C          10.070      -1.279      -0.093
 C           9.374      -2.557       0.005
 C           9.337      -5.099       0.079
 C           9.257      -7.634       0.212
 C           9.365      -0.032      -0.068
