   142
 frame    192
 H          22.172       4.851      -0.067
 H          20.938       7.032      -0.099
 H          18.753       8.311      -0.074
 H          14.063       9.635      -0.055
 H          16.571       9.603      -0.037
 H           9.637       7.173      -0.196
 H           8.348       5.026      -0.217
 H          11.850       8.399      -0.126
 H           8.142     -10.125       0.251
 H           8.313       2.496      -0.186
 H           8.113     -12.652       0.384
 H           9.346     -14.828       0.525
 H          11.529     -16.106       0.629
 H          16.217     -17.428       0.736
 H          13.711     -17.396       0.717
 H          20.647     -14.970       0.637
 H          22.082      -2.727       0.249
 H          22.049      -5.248       0.355
 H          22.011      -7.770       0.426
 H          21.972     -10.296       0.489
 H          22.143       2.322       0.013
 H          21.936     -12.823       0.564
 H          18.431     -16.193       0.686
 H          22.114      -0.204       0.122
 H           8.238      -2.554      -0.062
 H           8.203      -5.077       0.031
 H           8.170      -7.600       0.134
 H           8.273      -0.032      -0.137
 C          18.901       3.591      -0.074
 C          20.370       3.584      -0.095
 C          21.058       4.877      -0.050
 C          16.744       4.846      -0.044
 C          18.205       4.834       0.131
 C          18.907       6.126       0.199
 C          20.345       6.071       0.006
 C          12.308       4.901       0.071
 C          13.777       4.874      -0.062
 C          14.536       6.136      -0.055
 C          16.015       6.116      -0.059
 C          16.753       7.377       0.151
 C          18.207       7.370       0.207
 C          11.636       6.212       0.115
 C          12.364       7.441       0.157
 C          13.817       7.415       0.131
 C          14.603       8.663       0.126
 C          16.008       8.648       0.145
 C           9.459       5.018      -0.180
 C          10.191       6.195      -0.090
 C          13.649      -7.664      -0.228
 C          12.177      -7.678      -0.381
 C          11.428      -8.920      -0.211
 C           9.948      -8.883      -0.076
 C          11.543      -1.345      -0.604
 C           9.232     -10.151       0.133
 C          15.821      -8.910       0.052
 C          14.340      -8.892       0.016
 C          15.908      -1.418      -0.426
 C          13.604     -10.154       0.102
 C          14.459      -1.402      -0.460
 C          12.147     -10.168       0.022
 C          13.718      -2.638      -0.581
 C          11.586       3.678      -0.165
 C          11.400     -11.405       0.344
 C          12.234      -2.632      -0.573
 C          10.121       3.709      -0.224
 C           9.922     -11.392       0.279
 C          11.480      -3.879      -0.510
 C           9.404       2.486      -0.299
 C           9.218     -12.677       0.407
 C          20.318      -1.475      -0.246
 C          17.977     -10.242       0.120
 C          18.831      -1.438      -0.466
 C          16.524     -10.192       0.152
 C          18.100      -2.707      -0.455
 C          15.976       3.610      -0.178
 C          15.775     -11.433       0.322
 C          16.627      -2.669      -0.503
 C          14.517       3.626      -0.204
 C          14.313     -11.412       0.312
 C          13.769       2.380      -0.315
 C          13.555     -12.648       0.511
 C          15.887      -3.931      -0.550
 C          14.427      -3.911      -0.581
 C          12.316       2.419      -0.405
 C          12.095     -12.630       0.646
 C          13.684      -5.171      -0.495
 C          11.564       1.178      -0.544
 C          11.373     -13.910       0.764
 C          12.201      -5.148      -0.486
 C          10.079       1.191      -0.424
 C           9.923     -13.861       0.558
 C          20.981      -2.741       0.010
 C          18.682     -11.494       0.462
 C          20.284      -3.981      -0.122
 C          18.144       2.347      -0.309
 C          17.951     -12.713       0.724
 C          18.826      -3.971      -0.355
 C          16.696       2.348      -0.270
 C          16.494     -12.688       0.544
 C          18.067      -5.222      -0.354
 C          15.962       1.071      -0.292
 C          15.739     -13.949       0.591
 C          16.589      -5.210      -0.426
 C          14.466       1.094      -0.326
 C          14.274     -13.930       0.570
 C          15.841      -6.438      -0.250
 C          13.747      -0.133      -0.496
 C          13.527     -15.170       0.831
 C          14.388      -6.419      -0.289
 C          12.277      -0.086      -0.634
 C          12.070     -15.153       0.867
 C          20.943      -5.230       0.112
 C          18.869       1.079      -0.439
 C          18.634     -14.009       0.837
 C          20.248      -6.482      -0.050
 C          18.133      -0.163      -0.527
 C          17.906     -15.229       0.920
 C          18.765      -6.492      -0.281
 C          16.660      -0.171      -0.428
 C          16.451     -15.211       0.862
 C          18.025      -7.748      -0.254
 C          15.676     -16.463       0.895
 C          16.558      -7.699      -0.170
 C          14.274     -16.441       0.886
 C          20.906      -7.750       0.205
 C          20.208      -9.006       0.121
 C          18.731      -9.004      -0.067
 C          20.883     -10.294       0.327
 C          20.161     -11.518       0.441
 C          11.470      -6.407      -0.429
 C          21.057       2.341      -0.141
 C          20.822     -12.826       0.576
 C          20.350       1.062      -0.253
 C          20.084     -13.995       0.681
 C          21.011      -0.207      -0.081
 C           9.981      -6.363      -0.271
 C          10.013      -3.856      -0.354
 C          10.048      -1.341      -0.451
 C           9.347      -2.594      -0.245
 C           9.316      -5.092      -0.158
 C           9.286      -7.611      -0.037
 C           9.379      -0.057      -0.301
