   142
 frame    902
 H          22.172       4.851      -0.067
 H          20.938       7.032      -0.099
 H          18.753       8.311      -0.074
 H          14.063       9.635      -0.055
 H          16.571       9.603      -0.037
 H           9.637       7.173      -0.196
 H           8.348       5.026      -0.217
 H          11.850       8.399      -0.126
 H           8.142     -10.125       0.251
 H           8.313       2.496      -0.186
 H           8.113     -12.652       0.384
 H           9.346     -14.828       0.525
 H          11.529     -16.106       0.629
 H          16.217     -17.428       0.736
 H          13.711     -17.396       0.717
 H          20.647     -14.970       0.637
 H          22.082      -2.727       0.249
 H          22.049      -5.248       0.355
 H          22.011      -7.770       0.426
 H          21.972     -10.296       0.489
 H          22.143       2.322       0.013
 H          21.936     -12.823       0.564
 H          18.431     -16.193       0.686
 H          22.114      -0.204       0.122
 H           8.238      -2.554      -0.062
 H           8.203      -5.077       0.031
 H           8.170      -7.600       0.134
 H           8.273      -0.032      -0.137
 C          18.857       3.619       0.218
 C          20.342       3.600       0.207
 C          21.072       4.874       0.016
 C          16.719       4.917       0.033
 C          18.178       4.877      -0.024
 C          18.922       6.123      -0.106
 C          20.398       6.076      -0.033
 C          12.344       4.962      -0.098
 C          13.811       4.960      -0.022
 C          14.541       6.197       0.028
 C          16.006       6.176       0.041
 C          16.760       7.402      -0.218
 C          18.190       7.355      -0.216
 C          11.635       6.223      -0.192
 C          12.398       7.433      -0.268
 C          13.820       7.442      -0.253
 C          14.613       8.699      -0.228
 C          16.001       8.672      -0.226
 C           9.442       5.028      -0.128
 C          10.151       6.202      -0.142
 C          13.608      -7.611       0.758
 C          12.143      -7.588       0.763
 C          11.423      -8.882       0.808
 C           9.953      -8.871       0.619
 C          11.491      -1.348       0.523
 C           9.225     -10.157       0.530
 C          15.800      -8.892       0.650
 C          14.334      -8.872       0.633
 C          15.899      -1.357       0.823
 C          13.641     -10.149       0.633
 C          14.417      -1.339       0.806
 C          12.176     -10.170       0.777
 C          13.662      -2.558       1.091
 C          11.621       3.715       0.128
 C          11.414     -11.412       0.653
 C          12.202      -2.577       0.824
 C          10.140       3.736       0.073
 C           9.936     -11.386       0.607
 C          11.444      -3.834       0.836
 C           9.406       2.519       0.070
 C           9.211     -12.668       0.491
 C          20.314      -1.443       0.490
 C          17.928     -10.243       0.872
 C          18.835      -1.435       0.678
 C          16.467     -10.182       0.671
 C          18.083      -2.645       0.940
 C          15.956       3.655       0.076
 C          15.759     -11.470       0.591
 C          16.618      -2.597       1.146
 C          14.517       3.685       0.052
 C          14.313     -11.452       0.569
 C          13.818       2.405       0.192
 C          13.563     -12.707       0.564
 C          15.868      -3.868       1.356
 C          14.372      -3.851       1.329
 C          12.351       2.468       0.329
 C          12.111     -12.680       0.492
 C          13.631      -5.132       1.181
 C          11.562       1.216       0.421
 C          11.364     -13.922       0.472
 C          12.174      -5.093       0.894
 C          10.091       1.224       0.257
 C           9.888     -13.868       0.546
 C          20.967      -2.718       0.437
 C          18.660     -11.504       0.755
 C          20.243      -3.957       0.660
 C          18.085       2.396       0.418
 C          17.938     -12.754       0.557
 C          18.807      -3.923       0.996
 C          16.625       2.369       0.245
 C          16.481     -12.743       0.617
 C          18.044      -5.172       1.026
 C          15.942       1.093       0.290
 C          15.739     -13.978       0.691
 C          16.580      -5.168       1.250
 C          14.475       1.111       0.268
 C          14.279     -13.959       0.666
 C          15.833      -6.401       0.998
 C          13.715      -0.115       0.512
 C          13.524     -15.207       0.460
 C          14.356      -6.383       0.974
 C          12.243      -0.100       0.489
 C          12.095     -15.155       0.456
 C          20.941      -5.216       0.539
 C          18.844       1.129       0.553
 C          18.648     -14.007       0.550
 C          20.237      -6.463       0.676
 C          18.122      -0.176       0.610
 C          17.889     -15.219       0.504
 C          18.767      -6.408       0.846
 C          16.658      -0.145       0.560
 C          16.463     -15.238       0.490
 C          18.026      -7.657       0.866
 C          15.675     -16.492       0.526
 C          16.560      -7.645       0.812
 C          14.283     -16.476       0.517
 C          20.907      -7.754       0.626
 C          20.181      -9.006       0.812
 C          18.701      -8.969       0.938
 C          20.879     -10.308       0.720
 C          20.139     -11.517       0.752
 C          11.425      -6.318       0.683
 C          21.044       2.374       0.250
 C          20.833     -12.807       0.636
 C          20.319       1.104       0.439
 C          20.128     -13.994       0.659
 C          21.011      -0.178       0.315
 C           9.957      -6.334       0.455
 C          10.025      -3.833       0.432
 C          10.037      -1.312       0.267
 C           9.342      -2.566       0.181
 C           9.300      -5.072       0.270
 C           9.269      -7.609       0.378
 C           9.367      -0.031       0.112
