   142
 frame    416
 H          22.172       4.851      -0.067
 H          20.938       7.032      -0.099
 H          18.753       8.311      -0.074
 H          14.063       9.635      -0.055
 H          16.571       9.603      -0.037
 H           9.637       7.173      -0.196
 H           8.348       5.026      -0.217
 H          11.850       8.399      -0.126
 H           8.142     -10.125       0.251
 H           8.313       2.496      -0.186
 H           8.113     -12.652       0.384
 H           9.346     -14.828       0.525
 H          11.529     -16.106       0.629
 H          16.217     -17.428       0.736
 H          13.711     -17.396       0.717
 H          20.647     -14.970       0.637
 H          22.082      -2.727       0.249
 H          22.049      -5.248       0.355
 H          22.011      -7.770       0.426
 H          21.972     -10.296       0.489
 H          22.143       2.322       0.013
 H          21.936     -12.823       0.564
 H          18.431     -16.193       0.686
 H          22.114      -0.204       0.122
 H           8.238      -2.554      -0.062
 H           8.203      -5.077       0.031
 H           8.170      -7.600       0.134
 H           8.273      -0.032      -0.137
 C          18.916       3.618      -0.636
 C          20.375       3.557      -0.345
 C          21.065       4.861      -0.198
 C          16.730       4.864      -0.541
 C          18.199       4.870      -0.570
 C          18.928       6.125      -0.451
 C          20.372       6.071      -0.283
 C          12.327       4.949      -0.629
 C          13.794       4.900      -0.553
 C          14.536       6.154      -0.432
 C          16.013       6.134      -0.429
 C          16.783       7.386      -0.294
 C          18.207       7.366      -0.322
 C          11.632       6.218      -0.537
 C          12.370       7.448      -0.374
 C          13.794       7.427      -0.310
 C          14.604       8.640      -0.102
 C          16.006       8.625      -0.087
 C           9.458       5.008      -0.332
 C          10.183       6.207      -0.377
 C          13.635      -7.665      -0.042
 C          12.165      -7.670       0.022
 C          11.404      -8.892      -0.207
 C           9.911      -8.843      -0.183
 C          11.543      -1.340      -0.155
 C           9.242     -10.114       0.039
 C          15.821      -8.961      -0.154
 C          14.344      -8.946      -0.181
 C          15.918      -1.404      -0.267
 C          13.585     -10.203      -0.385
 C          14.446      -1.392      -0.308
 C          12.093     -10.183      -0.376
 C          13.677      -2.629      -0.255
 C          11.584       3.715      -0.751
 C          11.370     -11.454      -0.262
 C          12.203      -2.628      -0.177
 C          10.122       3.689      -0.489
 C           9.907     -11.388      -0.003
 C          11.446      -3.866      -0.123
 C           9.412       2.445      -0.385
 C           9.218     -12.672       0.248
 C          20.316      -1.453      -0.043
 C          18.044     -10.246      -0.284
 C          18.819      -1.429       0.001
 C          16.555     -10.241      -0.337
 C          18.123      -2.703      -0.047
 C          15.986       3.614      -0.618
 C          15.790     -11.458      -0.162
 C          16.659      -2.658      -0.180
 C          14.519       3.638      -0.640
 C          14.316     -11.443      -0.179
 C          13.759       2.406      -0.762
 C          13.553     -12.685      -0.031
 C          15.903      -3.930      -0.168
 C          14.400      -3.907      -0.209
 C          12.276       2.418      -0.746
 C          12.092     -12.694      -0.083
 C          13.644      -5.162      -0.158
 C          11.547       1.162      -0.513
 C          11.364     -13.942       0.097
 C          12.175      -5.121      -0.081
 C          10.054       1.162      -0.527
 C           9.908     -13.883       0.257
 C          20.988      -2.706       0.253
 C          18.726     -11.539      -0.155
 C          20.308      -3.964       0.265
 C          18.197       2.339      -0.668
 C          17.970     -12.760      -0.001
 C          18.855      -3.958       0.036
 C          16.709       2.361      -0.705
 C          16.511     -12.720      -0.002
 C          18.086      -5.184       0.046
 C          15.953       1.114      -0.453
 C          15.753     -13.962       0.173
 C          16.619      -5.198      -0.088
 C          14.483       1.133      -0.480
 C          14.274     -13.947       0.163
 C          15.846      -6.434      -0.110
 C          13.740      -0.121      -0.277
 C          13.506     -15.199       0.352
 C          14.383      -6.415      -0.142
 C          12.277      -0.072      -0.220
 C          12.068     -15.180       0.321
 C          20.965      -5.230       0.338
 C          18.890       1.068      -0.406
 C          18.664     -14.036       0.174
 C          20.255      -6.471       0.139
 C          18.115      -0.146      -0.114
 C          17.917     -15.246       0.378
 C          18.763      -6.470       0.178
 C          16.657      -0.145      -0.211
 C          16.481     -15.233       0.372
 C          18.022      -7.743       0.129
 C          15.679     -16.441       0.651
 C          16.554      -7.701       0.022
 C          14.277     -16.422       0.635
 C          20.977      -7.734       0.064
 C          20.248      -8.961       0.001
 C          18.757      -8.981      -0.061
 C          20.883     -10.255       0.233
 C          20.180     -11.512       0.157
 C          11.462      -6.381       0.021
 C          21.050       2.296      -0.204
 C          20.837     -12.813       0.408
 C          20.371       1.027      -0.354
 C          20.116     -14.007       0.375
 C          21.068      -0.219      -0.227
 C           9.963      -6.348      -0.091
 C           9.976      -3.837       0.030
 C          10.047      -1.329      -0.268
 C           9.325      -2.565      -0.026
 C           9.284      -5.084       0.071
 C           9.211      -7.588      -0.194
 C           9.327      -0.076      -0.450
