   142
 frame    465
 H          22.172       4.851      -0.067
 H          20.938       7.032      -0.099
 H          18.753       8.311      -0.074
 H          14.063       9.635      -0.055
 H          16.571       9.603      -0.037
 H           9.637       7.173      -0.196
 H           8.348       5.026      -0.217
 H          11.850       8.399      -0.126
 H           8.142     -10.125       0.251
 H           8.313       2.496      -0.186
 H           8.113     -12.652       0.384
 H           9.346     -14.828       0.525
 H          11.529     -16.106       0.629
 H          16.217     -17.428       0.736
 H          13.711     -17.396       0.717
 H          20.647     -14.970       0.637
 H          22.082      -2.727       0.249
 H          22.049      -5.248       0.355
 H          22.011      -7.770       0.426
 H          21.972     -10.296       0.489
 H          22.143       2.322       0.013
 H          21.936     -12.823       0.564
 H          18.431     -16.193       0.686
 H          22.114      -0.204       0.122
 H           8.238      -2.554      -0.062
 H           8.203      -5.077       0.031
 H           8.170      -7.600       0.134
 H           8.273      -0.032      -0.137
 C          18.892       3.624      -0.503
 C          20.400       3.583      -0.428
 C          21.106       4.882      -0.254
 C          16.711       4.884      -0.517
 C          18.182       4.892      -0.436
 C          18.933       6.130      -0.159
 C          20.393       6.064      -0.094
 C          12.347       4.978      -0.502
 C          13.819       4.925      -0.556
 C          14.542       6.158      -0.353
 C          16.004       6.133      -0.326
 C          16.756       7.365      -0.096
 C          18.189       7.352      -0.046
 C          11.624       6.228      -0.224
 C          12.396       7.431      -0.092
 C          13.823       7.408      -0.120
 C          14.610       8.634      -0.086
 C          16.005       8.616      -0.062
 C           9.414       5.035      -0.374
 C          10.151       6.193      -0.184
 C          13.648      -7.662      -0.255
 C          12.184      -7.656      -0.214
 C          11.444      -8.895      -0.173
 C           9.978      -8.890       0.029
 C          11.574      -1.333      -0.191
 C           9.238     -10.145       0.055
 C          15.822      -8.960      -0.179
 C          14.353      -8.948      -0.204
 C          15.907      -1.404      -0.201
 C          13.586     -10.205      -0.170
 C          14.446      -1.383      -0.224
 C          12.124     -10.177      -0.115
 C          13.718      -2.633      -0.141
 C          11.611       3.724      -0.602
 C          11.409     -11.457      -0.094
 C          12.258      -2.608       0.045
 C          10.099       3.716      -0.551
 C           9.899     -11.412      -0.044
 C          11.518      -3.857       0.159
 C           9.407       2.470      -0.378
 C           9.192     -12.699       0.227
 C          20.256      -1.436       0.173
 C          18.007     -10.244      -0.025
 C          18.778      -1.426      -0.040
 C          16.548     -10.244      -0.140
 C          18.051      -2.679       0.157
 C          15.984       3.615      -0.577
 C          15.787     -11.467      -0.130
 C          16.599      -2.673      -0.076
 C          14.514       3.637      -0.609
 C          14.313     -11.449      -0.150
 C          13.750       2.410      -0.569
 C          13.587     -12.729      -0.027
 C          15.868      -3.915      -0.090
 C          14.423      -3.894      -0.120
 C          12.294       2.426      -0.519
 C          12.121     -12.731       0.052
 C          13.689      -5.139      -0.078
 C          11.570       1.161      -0.502
 C          11.364     -13.949       0.421
 C          12.227      -5.129       0.112
 C          10.100       1.198      -0.323
 C           9.897     -13.872       0.477
 C          20.954      -2.708       0.349
 C          18.686     -11.544      -0.002
 C          20.222      -3.957       0.422
 C          18.170       2.351      -0.433
 C          17.943     -12.800       0.126
 C          18.751      -3.950       0.324
 C          16.709       2.372      -0.517
 C          16.477     -12.760       0.015
 C          18.010      -5.196       0.238
 C          15.950       1.110      -0.495
 C          15.741     -13.977       0.282
 C          16.555      -5.166      -0.007
 C          14.484       1.130      -0.510
 C          14.280     -13.961       0.264
 C          15.842      -6.428      -0.047
 C          13.741      -0.134      -0.488
 C          13.526     -15.176       0.550
 C          14.386      -6.412      -0.071
 C          12.285      -0.094      -0.457
 C          12.094     -15.162       0.611
 C          20.913      -5.231       0.447
 C          18.862       1.072      -0.360
 C          18.662     -14.042       0.487
 C          20.185      -6.495       0.354
 C          18.108      -0.170      -0.345
 C          17.895     -15.228       0.656
 C          18.718      -6.486       0.114
 C          16.651      -0.174      -0.434
 C          16.462     -15.205       0.580
 C          18.013      -7.729      -0.107
 C          15.679     -16.430       0.657
 C          16.552      -7.693      -0.197
 C          14.279     -16.413       0.646
 C          20.892      -7.779       0.398
 C          20.179      -9.011       0.211
 C          18.715      -8.982      -0.021
 C          20.885     -10.290       0.245
 C          20.192     -11.535       0.107
 C          11.500      -6.392      -0.031
 C          21.055       2.329      -0.213
 C          20.860     -12.843       0.386
 C          20.323       1.070      -0.138
 C          20.119     -13.997       0.590
 C          20.996      -0.179       0.129
 C          10.024      -6.371       0.150
 C          10.048      -3.833       0.205
 C          10.091      -1.311      -0.011
 C           9.359      -2.562       0.109
 C           9.328      -5.087       0.189
 C           9.288      -7.632       0.168
 C           9.383      -0.034      -0.083
