   142
 frame    210
 H          22.172       4.851      -0.067
 H          20.938       7.032      -0.099
 H          18.753       8.311      -0.074
 H          14.063       9.635      -0.055
 H          16.571       9.603      -0.037
 H           9.637       7.173      -0.196
 H           8.348       5.026      -0.217
 H          11.850       8.399      -0.126
 H           8.142     -10.125       0.251
 H           8.313       2.496      -0.186
 H           8.113     -12.652       0.384
 H           9.346     -14.828       0.525
 H          11.529     -16.106       0.629
 H          16.217     -17.428       0.736
 H          13.711     -17.396       0.717
 H          20.647     -14.970       0.637
 H          22.082      -2.727       0.249
 H          22.049      -5.248       0.355
 H          22.011      -7.770       0.426
 H          21.972     -10.296       0.489
 H          22.143       2.322       0.013
 H          21.936     -12.823       0.564
 H          18.431     -16.193       0.686
 H          22.114      -0.204       0.122
 H           8.238      -2.554      -0.062
 H           8.203      -5.077       0.031
 H           8.170      -7.600       0.134
 H           8.273      -0.032      -0.137
 C          18.872       3.588      -0.125
 C          20.345       3.550      -0.098
 C          21.078       4.851      -0.174
 C          16.678       4.873       0.081
 C          18.145       4.841       0.058
 C          18.903       6.107      -0.067
 C          20.389       6.060      -0.206
 C          12.369       4.910      -0.013
 C          13.829       4.910       0.039
 C          14.553       6.177       0.115
 C          15.989       6.163       0.127
 C          16.740       7.416       0.095
 C          18.185       7.346      -0.014
 C          11.648       6.196      -0.127
 C          12.401       7.418      -0.075
 C          13.838       7.451       0.083
 C          14.607       8.702       0.104
 C          16.000       8.680       0.108
 C           9.450       4.995      -0.290
 C          10.173       6.187      -0.304
 C          13.649      -7.694      -0.276
 C          12.164      -7.668      -0.299
 C          11.426      -8.910      -0.252
 C           9.960      -8.870      -0.061
 C          11.519      -1.337      -0.479
 C           9.269     -10.107       0.223
 C          15.817      -8.972      -0.005
 C          14.339      -8.954      -0.034
 C          15.914      -1.400      -0.656
 C          13.610     -10.200      -0.003
 C          14.461      -1.378      -0.688
 C          12.149     -10.175      -0.069
 C          13.704      -2.641      -0.620
 C          11.620       3.679      -0.227
 C          11.420     -11.387       0.276
 C          12.229      -2.599      -0.497
 C          10.142       3.677      -0.221
 C           9.949     -11.355       0.287
 C          11.479      -3.869      -0.400
 C           9.430       2.442      -0.216
 C           9.230     -12.659       0.283
 C          20.325      -1.443      -0.198
 C          17.984     -10.243       0.038
 C          18.854      -1.427      -0.326
 C          16.522     -10.235       0.055
 C          18.102      -2.669      -0.358
 C          15.965       3.610      -0.203
 C          15.765     -11.448       0.300
 C          16.642      -2.679      -0.578
 C          14.518       3.632      -0.217
 C          14.317     -11.431       0.275
 C          13.778       2.398      -0.428
 C          13.598     -12.661       0.624
 C          15.902      -3.929      -0.561
 C          14.402      -3.909      -0.593
 C          12.306       2.410      -0.483
 C          12.129     -12.626       0.557
 C          13.667      -5.158      -0.542
 C          11.557       1.165      -0.594
 C          11.391     -13.910       0.495
 C          12.193      -5.160      -0.415
 C          10.094       1.169      -0.400
 C           9.921     -13.873       0.342
 C          20.990      -2.700      -0.019
 C          18.666     -11.482       0.383
 C          20.280      -3.975      -0.107
 C          18.164       2.343      -0.412
 C          17.915     -12.701       0.633
 C          18.827      -3.955      -0.228
 C          16.692       2.365      -0.377
 C          16.443     -12.700       0.647
 C          18.068      -5.233      -0.281
 C          15.955       1.139      -0.336
 C          15.721     -13.967       0.771
 C          16.606      -5.190      -0.477
 C          14.480       1.153      -0.372
 C          14.287     -13.950       0.763
 C          15.845      -6.454      -0.483
 C          13.750      -0.102      -0.517
 C          13.540     -15.205       0.775
 C          14.393      -6.437      -0.520
 C          12.267      -0.099      -0.566
 C          12.105     -15.148       0.620
 C          20.957      -5.261       0.083
 C          18.881       1.076      -0.480
 C          18.627     -13.997       0.591
 C          20.263      -6.514      -0.000
 C          18.137      -0.167      -0.455
 C          17.880     -15.217       0.674
 C          18.786      -6.495      -0.139
 C          16.656      -0.138      -0.458
 C          16.437     -15.238       0.804
 C          18.034      -7.737      -0.184
 C          15.669     -16.487       0.862
 C          16.548      -7.725      -0.203
 C          14.279     -16.475       0.845
 C          20.931      -7.790       0.119
 C          20.204      -9.001       0.130
 C          18.743      -9.004      -0.109
 C          20.853     -10.256       0.424
 C          20.139     -11.485       0.447
 C          11.452      -6.399      -0.301
 C          21.023       2.301      -0.043
 C          20.829     -12.800       0.441
 C          20.343       1.047      -0.239
 C          20.107     -13.991       0.469
 C          21.033      -0.178      -0.179
 C           9.971      -6.388      -0.228
 C          10.019      -3.852      -0.336
 C          10.045      -1.318      -0.406
 C           9.345      -2.555      -0.269
 C           9.309      -5.109      -0.183
 C           9.266      -7.645      -0.126
 C           9.374      -0.043      -0.392
