   142
 frame    276
 H          22.172       4.851      -0.067
 H          20.938       7.032      -0.099
 H          18.753       8.311      -0.074
 H          14.063       9.635      -0.055
 H          16.571       9.603      -0.037
 H           9.637       7.173      -0.196
 H           8.348       5.026      -0.217
 H          11.850       8.399      -0.126
 H           8.142     -10.125       0.251
 H           8.313       2.496      -0.186
 H           8.113     -12.652       0.384
 H           9.346     -14.828       0.525
 H          11.529     -16.106       0.629
 H          16.217     -17.428       0.736
 H          13.711     -17.396       0.717
 H          20.647     -14.970       0.637
 H          22.082      -2.727       0.249
 H          22.049      -5.248       0.355
 H          22.011      -7.770       0.426
 H          21.972     -10.296       0.489
 H          22.143       2.322       0.013
 H          21.936     -12.823       0.564
 H          18.431     -16.193       0.686
 H          22.114      -0.204       0.122
 H           8.238      -2.554      -0.062
 H           8.203      -5.077       0.031
 H           8.170      -7.600       0.134
 H           8.273      -0.032      -0.137
 C          18.867       3.562      -0.300
 C          20.362       3.570      -0.277
 C          21.088       4.874      -0.356
 C          16.722       4.883      -0.353
 C          18.156       4.826      -0.183
 C          18.933       6.104      -0.104
 C          20.403       6.080      -0.261
 C          12.368       4.897      -0.242
 C          13.806       4.920      -0.366
 C          14.550       6.161      -0.392
 C          16.003       6.137      -0.379
 C          16.760       7.375      -0.143
 C          18.214       7.338      -0.095
 C          11.624       6.194      -0.199
 C          12.368       7.416      -0.142
 C          13.822       7.419      -0.172
 C          14.604       8.658       0.013
 C          16.011       8.638       0.006
 C           9.437       5.022      -0.480
 C          10.152       6.206      -0.359
 C          13.625      -7.674      -0.381
 C          12.171      -7.637      -0.265
 C          11.445      -8.891      -0.130
 C           9.963      -8.852       0.084
 C          11.539      -1.356      -0.333
 C           9.251     -10.141       0.192
 C          15.818      -8.939      -0.128
 C          14.361      -8.922      -0.159
 C          15.955      -1.395      -0.779
 C          13.624     -10.175      -0.061
 C          14.442      -1.376      -0.807
 C          12.156     -10.155      -0.123
 C          13.708      -2.650      -0.677
 C          11.623       3.654      -0.391
 C          11.431     -11.387       0.091
 C          12.235      -2.624      -0.545
 C          10.134       3.702      -0.420
 C           9.939     -11.391       0.085
 C          11.492      -3.861      -0.382
 C           9.418       2.479      -0.237
 C           9.207     -12.707       0.121
 C          20.289      -1.464       0.112
 C          17.976     -10.225      -0.008
 C          18.825      -1.442      -0.182
 C          16.508     -10.211      -0.004
 C          18.096      -2.697      -0.414
 C          15.986       3.627      -0.412
 C          15.787     -11.464       0.063
 C          16.636      -2.689      -0.617
 C          14.510       3.646      -0.425
 C          14.312     -11.442       0.041
 C          13.792       2.393      -0.463
 C          13.567     -12.703       0.154
 C          15.890      -3.932      -0.554
 C          14.418      -3.911      -0.590
 C          12.320       2.396      -0.523
 C          12.135     -12.640       0.317
 C          13.677      -5.162      -0.605
 C          11.576       1.154      -0.443
 C          11.356     -13.901       0.470
 C          12.200      -5.136      -0.463
 C          10.091       1.165      -0.252
 C           9.887     -13.900       0.296
 C          20.969      -2.721       0.173
 C          18.663     -11.478       0.214
 C          20.260      -3.970       0.111
 C          18.149       2.316      -0.431
 C          17.926     -12.712       0.392
 C          18.806      -3.954      -0.208
 C          16.672       2.355      -0.422
 C          16.499     -12.737       0.199
 C          18.064      -5.209      -0.324
 C          15.949       1.095      -0.447
 C          15.748     -13.975       0.231
 C          16.609      -5.194      -0.534
 C          14.493       1.109      -0.486
 C          14.283     -13.959       0.215
 C          15.884      -6.476      -0.605
 C          13.721      -0.122      -0.636
 C          13.516     -15.191       0.490
 C          14.377      -6.457      -0.649
 C          12.266      -0.117      -0.510
 C          12.069     -15.138       0.544
 C          20.938      -5.230       0.276
 C          18.864       1.065      -0.336
 C          18.662     -13.990       0.547
 C          20.212      -6.466       0.310
 C          18.132      -0.184      -0.400
 C          17.921     -15.211       0.608
 C          18.759      -6.459      -0.001
 C          16.696      -0.161      -0.571
 C          16.470     -15.227       0.523
 C          18.034      -7.707      -0.137
 C          15.682     -16.448       0.758
 C          16.589      -7.710      -0.321
 C          14.274     -16.435       0.734
 C          20.888      -7.743       0.435
 C          20.194      -8.985       0.290
 C          18.725      -8.983       0.014
 C          20.864     -10.288       0.398
 C          20.153     -11.521       0.240
 C          11.468      -6.367      -0.161
 C          21.039       2.336      -0.059
 C          20.847     -12.849       0.267
 C          20.333       1.044      -0.070
 C          20.133     -14.029       0.414
 C          20.999      -0.200       0.143
 C           9.999      -6.341       0.064
 C          10.027      -3.847      -0.132
 C          10.067      -1.339      -0.109
 C           9.351      -2.578      -0.085
 C           9.319      -5.085       0.003
 C           9.289      -7.598       0.177
 C           9.382      -0.062      -0.082
