   142
 frame    547
 H          22.172       4.851      -0.067
 H          20.938       7.032      -0.099
 H          18.753       8.311      -0.074
 H          14.063       9.635      -0.055
 H          16.571       9.603      -0.037
 H           9.637       7.173      -0.196
 H           8.348       5.026      -0.217
 H          11.850       8.399      -0.126
 H           8.142     -10.125       0.251
 H           8.313       2.496      -0.186
 H           8.113     -12.652       0.384
 H           9.346     -14.828       0.525
 H          11.529     -16.106       0.629
 H          16.217     -17.428       0.736
 H          13.711     -17.396       0.717
 H          20.647     -14.970       0.637
 H          22.082      -2.727       0.249
 H          22.049      -5.248       0.355
 H          22.011      -7.770       0.426
 H          21.972     -10.296       0.489
 H          22.143       2.322       0.013
 H          21.936     -12.823       0.564
 H          18.431     -16.193       0.686
 H          22.114      -0.204       0.122
 H           8.238      -2.554      -0.062
 H           8.203      -5.077       0.031
 H           8.170      -7.600       0.134
 H           8.273      -0.032      -0.137
 C          18.890       3.576      -0.021
 C          20.367       3.551       0.006
 C          21.080       4.849       0.003
 C          16.749       4.899      -0.315
 C          18.185       4.835      -0.040
 C          18.897       6.094       0.083
 C          20.384       6.048       0.020
 C          12.343       4.902      -0.112
 C          13.779       4.928      -0.338
 C          14.550       6.172      -0.436
 C          16.006       6.156      -0.414
 C          16.742       7.412      -0.185
 C          18.189       7.338       0.016
 C          11.652       6.177       0.000
 C          12.384       7.409      -0.042
 C          13.841       7.445      -0.197
 C          14.606       8.692      -0.078
 C          16.001       8.675      -0.076
 C           9.445       4.996      -0.132
 C          10.157       6.176      -0.084
 C          13.627      -7.671       0.091
 C          12.153      -7.646       0.037
 C          11.415      -8.893       0.193
 C           9.937      -8.864       0.240
 C          11.520      -1.351      -0.286
 C           9.233     -10.130       0.309
 C          15.824      -8.958       0.274
 C          14.328      -8.943       0.267
 C          15.914      -1.390      -0.050
 C          13.607     -10.179       0.258
 C          14.440      -1.370      -0.057
 C          12.157     -10.150       0.292
 C          13.678      -2.601      -0.130
 C          11.599       3.663      -0.122
 C          11.400     -11.376       0.376
 C          12.213      -2.620      -0.194
 C          10.117       3.679      -0.122
 C           9.919     -11.353       0.358
 C          11.455      -3.864      -0.226
 C           9.402       2.469      -0.127
 C           9.216     -12.648       0.456
 C          20.324      -1.463       0.023
 C          17.956     -10.219       0.380
 C          18.849      -1.440      -0.148
 C          16.509     -10.227       0.289
 C          18.122      -2.691      -0.085
 C          15.984       3.668      -0.278
 C          15.784     -11.501       0.228
 C          16.651      -2.644      -0.079
 C          14.511       3.677      -0.293
 C          14.309     -11.478       0.203
 C          13.775       2.409      -0.150
 C          13.547     -12.701       0.244
 C          15.895      -3.902      -0.013
 C          14.401      -3.887      -0.039
 C          12.312       2.412      -0.113
 C          12.108     -12.630       0.473
 C          13.656      -5.160      -0.039
 C          11.547       1.172      -0.139
 C          11.395     -13.873       0.647
 C          12.181      -5.125      -0.113
 C          10.070       1.184      -0.098
 C           9.908     -13.845       0.565
 C          20.992      -2.720       0.114
 C          18.679     -11.471       0.485
 C          20.285      -3.966       0.143
 C          18.136       2.334      -0.037
 C          17.948     -12.707       0.543
 C          18.847      -3.958      -0.071
 C          16.678       2.379      -0.119
 C          16.512     -12.742       0.283
 C          18.087      -5.207      -0.010
 C          15.964       1.142      -0.047
 C          15.735     -13.987       0.232
 C          16.613      -5.200       0.019
 C          14.460       1.157      -0.060
 C          14.284     -13.969       0.212
 C          15.852      -6.431       0.114
 C          13.723      -0.102      -0.154
 C          13.539     -15.213       0.482
 C          14.377      -6.415       0.090
 C          12.257      -0.097      -0.213
 C          12.089     -15.125       0.672
 C          20.962      -5.227       0.213
 C          18.873       1.087      -0.021
 C          18.621     -13.975       0.712
 C          20.263      -6.474       0.202
 C          18.148      -0.172      -0.123
 C          17.890     -15.202       0.717
 C          18.787      -6.465       0.016
 C          16.677      -0.142      -0.106
 C          16.448     -15.251       0.512
 C          18.043      -7.713       0.140
 C          15.672     -16.494       0.655
 C          16.569      -7.710       0.131
 C          14.273     -16.470       0.640
 C          20.926      -7.748       0.377
 C          20.207      -8.990       0.427
 C          18.733      -8.979       0.325
 C          20.887     -10.280       0.510
 C          20.165     -11.491       0.521
 C          11.444      -6.374      -0.129
 C          21.054       2.326       0.062
 C          20.827     -12.793       0.610
 C          20.350       1.052       0.070
 C          20.101     -13.976       0.685
 C          21.035      -0.203       0.086
 C           9.962      -6.351       0.001
 C          10.006      -3.842      -0.078
 C          10.042      -1.331      -0.177
 C           9.334      -2.573      -0.141
 C           9.298      -5.087      -0.047
 C           9.255      -7.605       0.139
 C           9.361      -0.059      -0.122
