   142
 frame    162
 H          22.172       4.851      -0.067
 H          20.938       7.032      -0.099
 H          18.753       8.311      -0.074
 H          14.063       9.635      -0.055
 H          16.571       9.603      -0.037
 H           9.637       7.173      -0.196
 H           8.348       5.026      -0.217
 H          11.850       8.399      -0.126
 H           8.142     -10.125       0.251
 H           8.313       2.496      -0.186
 H           8.113     -12.652       0.384
 H           9.346     -14.828       0.525
 H          11.529     -16.106       0.629
 H          16.217     -17.428       0.736
 H          13.711     -17.396       0.717
 H          20.647     -14.970       0.637
 H          22.082      -2.727       0.249
 H          22.049      -5.248       0.355
 H          22.011      -7.770       0.426
 H          21.972     -10.296       0.489
 H          22.143       2.322       0.013
 H          21.936     -12.823       0.564
 H          18.431     -16.193       0.686
 H          22.114      -0.204       0.122
 H           8.238      -2.554      -0.062
 H           8.203      -5.077       0.031
 H           8.170      -7.600       0.134
 H           8.273      -0.032      -0.137
 C          18.881       3.595      -0.012
 C          20.358       3.573       0.030
 C          21.084       4.855       0.161
 C          16.706       4.886      -0.035
 C          18.179       4.867       0.018
 C          18.927       6.134       0.178
 C          20.412       6.079       0.266
 C          12.341       4.938      -0.035
 C          13.811       4.928      -0.074
 C          14.544       6.184       0.058
 C          16.003       6.169       0.078
 C          16.766       7.424       0.037
 C          18.206       7.363       0.085
 C          11.621       6.229       0.125
 C          12.370       7.442       0.032
 C          13.813       7.464       0.014
 C          14.606       8.692      -0.074
 C          16.003       8.668      -0.067
 C           9.436       5.002       0.024
 C          10.140       6.207       0.156
 C          13.636      -7.685      -0.149
 C          12.172      -7.664      -0.217
 C          11.427      -8.882       0.001
 C           9.944      -8.891      -0.046
 C          11.511      -1.341      -0.569
 C           9.257     -10.149       0.164
 C          15.821      -8.954       0.031
 C          14.338      -8.934       0.017
 C          15.896      -1.424      -0.375
 C          13.596     -10.159       0.236
 C          14.470      -1.405      -0.408
 C          12.141     -10.138       0.254
 C          13.700      -2.646      -0.508
 C          11.607       3.690      -0.110
 C          11.398     -11.394       0.395
 C          12.219      -2.607      -0.707
 C          10.129       3.703      -0.098
 C           9.914     -11.373       0.413
 C          11.447      -3.881      -0.592
 C           9.428       2.487      -0.265
 C           9.198     -12.649       0.626
 C          20.345      -1.461      -0.239
 C          17.983     -10.206       0.350
 C          18.867      -1.434      -0.432
 C          16.526     -10.193       0.284
 C          18.133      -2.678      -0.573
 C          15.973       3.612      -0.151
 C          15.779     -11.444       0.366
 C          16.638      -2.683      -0.454
 C          14.510       3.629      -0.157
 C          14.301     -11.428       0.338
 C          13.767       2.370      -0.203
 C          13.565     -12.687       0.507
 C          15.907      -3.928      -0.335
 C          14.398      -3.910      -0.377
 C          12.306       2.394      -0.171
 C          12.093     -12.656       0.539
 C          13.658      -5.172      -0.410
 C          11.567       1.153      -0.349
 C          11.350     -13.914       0.786
 C          12.176      -5.184      -0.616
 C          10.082       1.198      -0.383
 C           9.874     -13.862       0.842
 C          20.995      -2.720      -0.007
 C          18.689     -11.488       0.504
 C          20.305      -3.984      -0.215
 C          18.152       2.317      -0.088
 C          17.961     -12.731       0.621
 C          18.878      -3.972      -0.441
 C          16.689       2.333      -0.173
 C          16.485     -12.721       0.547
 C          18.107      -5.260      -0.485
 C          15.960       1.092      -0.323
 C          15.735     -13.965       0.723
 C          16.608      -5.210      -0.354
 C          14.470       1.110      -0.353
 C          14.275     -13.948       0.710
 C          15.835      -6.451      -0.189
 C          13.738      -0.136      -0.409
 C          13.514     -15.203       0.725
 C          14.398      -6.430      -0.224
 C          12.280      -0.105      -0.490
 C          12.069     -15.148       0.755
 C          20.965      -5.251       0.093
 C          18.861       1.056      -0.218
 C          18.666     -14.006       0.867
 C          20.289      -6.501      -0.040
 C          18.124      -0.181      -0.373
 C          17.915     -15.218       0.807
 C          18.811      -6.509      -0.235
 C          16.661      -0.176      -0.370
 C          16.466     -15.241       0.749
 C          18.033      -7.734      -0.103
 C          15.675     -16.477       0.681
 C          16.559      -7.720      -0.098
 C          14.278     -16.460       0.670
 C          20.935      -7.788       0.168
 C          20.219      -9.013       0.152
 C          18.734      -8.974       0.144
 C          20.869     -10.290       0.381
 C          20.167     -11.498       0.575
 C          11.431      -6.412      -0.398
 C          21.031       2.340      -0.090
 C          20.844     -12.796       0.769
 C          20.353       1.065      -0.212
 C          20.137     -13.993       0.948
 C          21.042      -0.173      -0.138
 C           9.950      -6.374      -0.271
 C          10.007      -3.862      -0.442
 C          10.021      -1.330      -0.449
 C           9.338      -2.573      -0.263
 C           9.301      -5.097      -0.168
 C           9.263      -7.641      -0.078
 C           9.366      -0.030      -0.344
