   142
 frame     20
 H          22.172       4.851      -0.067
 H          20.938       7.032      -0.099
 H          18.753       8.311      -0.074
 H          14.063       9.635      -0.055
 H          16.571       9.603      -0.037
 H           9.637       7.173      -0.196
 H           8.348       5.026      -0.217
 H          11.850       8.399      -0.126
 H           8.142     -10.125       0.251
 H           8.313       2.496      -0.186
 H           8.113     -12.652       0.384
 H           9.346     -14.828       0.525
 H          11.529     -16.106       0.629
 H          16.217     -17.428       0.736
 H          13.711     -17.396       0.717
 H          20.647     -14.970       0.637
 H          22.082      -2.727       0.249
 H          22.049      -5.248       0.355
 H          22.011      -7.770       0.426
 H          21.972     -10.296       0.489
 H          22.143       2.322       0.013
 H          21.936     -12.823       0.564
 H          18.431     -16.193       0.686
 H          22.114      -0.204       0.122
 H           8.238      -2.554      -0.062
 H           8.203      -5.077       0.031
 H           8.170      -7.600       0.134
 H           8.273      -0.032      -0.137
 C          18.881       3.600      -0.034
 C          20.355       3.577      -0.030
 C          21.065       4.869      -0.061
 C          16.715       4.878      -0.062
 C          18.170       4.861      -0.057
 C          18.909       6.130      -0.070
 C          20.383       6.074      -0.079
 C          12.347       4.934      -0.121
 C          13.802       4.914      -0.094
 C          14.545       6.164      -0.085
 C          16.003       6.145      -0.071
 C          16.751       7.399      -0.066
 C          18.191       7.358      -0.070
 C          11.640       6.220      -0.139
 C          12.387       7.431      -0.119
 C          13.828       7.436      -0.090
 C          14.608       8.671      -0.065
 C          16.002       8.654      -0.055
 C           9.455       5.015      -0.189
 C          10.166       6.202      -0.177
 C          13.648      -7.623       0.288
 C          12.179      -7.624       0.253
 C          11.432      -8.884       0.291
 C           9.959      -8.867       0.248
 C          11.549      -1.358      -0.004
 C           9.249     -10.137       0.284
 C          15.804      -8.919       0.362
 C          14.345      -8.901       0.334
 C          15.896      -1.396       0.274
 C          13.603     -10.157       0.393
 C          14.448      -1.370       0.272
 C          12.140     -10.146       0.364
 C          13.697      -2.636       0.108
 C          11.604       3.691      -0.126
 C          11.402     -11.398       0.400
 C          12.218      -2.604       0.213
 C          10.132       3.704      -0.160
 C           9.930     -11.377       0.363
 C          11.514      -3.856       0.159
 C           9.418       2.481      -0.159
 C           9.220     -12.669       0.410
 C          20.284      -1.453       0.143
 C          17.975     -10.218       0.464
 C          18.807      -1.447       0.134
 C          16.512     -10.193       0.442
 C          18.084      -2.682       0.303
 C          15.971       3.623      -0.052
 C          15.771     -11.440       0.483
 C          16.622      -2.669       0.207
 C          14.512       3.640      -0.070
 C          14.311     -11.422       0.462
 C          13.773       2.390      -0.068
 C          13.569     -12.675       0.501
 C          15.816      -3.905       0.074
 C          14.439      -3.878       0.064
 C          12.309       2.418      -0.091
 C          12.113     -12.659       0.473
 C          13.678      -5.105       0.210
 C          11.569       1.171      -0.081
 C          11.373     -13.926       0.520
 C          12.187      -5.115       0.311
 C          10.095       1.193      -0.117
 C           9.901     -13.871       0.488
 C          20.972      -2.715       0.223
 C          18.679     -11.488       0.510
 C          20.255      -3.965       0.254
 C          18.143       2.346      -0.006
 C          17.937     -12.731       0.548
 C          18.774      -3.946       0.315
 C          16.680       2.354      -0.023
 C          16.481     -12.712       0.538
 C          18.054      -5.188       0.439
 C          15.940       1.091      -0.020
 C          15.737     -13.959       0.581
 C          16.571      -5.135       0.264
 C          14.480       1.108      -0.046
 C          14.279     -13.941       0.565
 C          15.835      -6.407       0.512
 C          13.752      -0.150       0.003
 C          13.531     -15.194       0.613
 C          14.374      -6.386       0.477
 C          12.283      -0.111      -0.033
 C          12.091     -15.153       0.592
 C          20.939      -5.233       0.329
 C          18.851       1.081       0.041
 C          18.643     -14.017       0.599
 C          20.219      -6.478       0.348
 C          18.105      -0.181       0.072
 C          17.894     -15.226       0.646
 C          18.742      -6.454       0.349
 C          16.635      -0.185       0.044
 C          16.454     -15.231       0.640
 C          18.006      -7.698       0.376
 C          15.673     -16.465       0.689
 C          16.540      -7.662       0.350
 C          14.279     -16.447       0.678
 C          20.901      -7.751       0.411
 C          20.190      -8.994       0.446
 C          18.717      -8.974       0.432
 C          20.866     -10.280       0.485
 C          20.152     -11.503       0.518
 C          11.478      -6.362       0.189
 C          21.036       2.335       0.009
 C          20.830     -12.814       0.562
 C          20.326       1.066       0.054
 C          20.117     -13.999       0.602
 C          21.003      -0.196       0.108
 C          10.002      -6.352       0.119
 C          10.039      -3.839       0.016
 C          10.075      -1.328      -0.070
 C           9.351      -2.572      -0.037
 C           9.315      -5.088       0.058
 C           9.282      -7.606       0.166
 C           9.387      -0.053      -0.110
