   142
 frame    829
 H          22.172       4.851      -0.067
 H          20.938       7.032      -0.099
 H          18.753       8.311      -0.074
 H          14.063       9.635      -0.055
 H          16.571       9.603      -0.037
 H           9.637       7.173      -0.196
 H           8.348       5.026      -0.217
 H          11.850       8.399      -0.126
 H           8.142     -10.125       0.251
 H           8.313       2.496      -0.186
 H           8.113     -12.652       0.384
 H           9.346     -14.828       0.525
 H          11.529     -16.106       0.629
 H          16.217     -17.428       0.736
 H          13.711     -17.396       0.717
 H          20.647     -14.970       0.637
 H          22.082      -2.727       0.249
 H          22.049      -5.248       0.355
 H          22.011      -7.770       0.426
 H          21.972     -10.296       0.489
 H          22.143       2.322       0.013
 H          21.936     -12.823       0.564
 H          18.431     -16.193       0.686
 H          22.114      -0.204       0.122
 H           8.238      -2.554      -0.062
 H           8.203      -5.077       0.031
 H           8.170      -7.600       0.134
 H           8.273      -0.032      -0.137
 C          18.825       3.554       0.036
 C          20.322       3.531      -0.056
 C          21.063       4.816       0.032
 C          16.665       4.899       0.040
 C          18.137       4.854       0.056
 C          18.915       6.119       0.062
 C          20.414       6.052       0.064
 C          12.369       4.936      -0.013
 C          13.850       4.937      -0.004
 C          14.553       6.171       0.005
 C          15.996       6.160       0.017
 C          16.770       7.394       0.015
 C          18.196       7.365       0.027
 C          11.630       6.211      -0.011
 C          12.384       7.442      -0.024
 C          13.807       7.439      -0.002
 C          14.610       8.691      -0.142
 C          16.008       8.670      -0.133
 C           9.454       4.959      -0.102
 C          10.138       6.178      -0.045
 C          13.623      -7.642       1.042
 C          12.161      -7.630       0.781
 C          11.402      -8.877       0.674
 C           9.971      -8.853       0.410
 C          11.509      -1.314       0.353
 C           9.275     -10.116       0.216
 C          15.786      -8.926       1.296
 C          14.326      -8.909       1.277
 C          15.909      -1.385       0.780
 C          13.613     -10.149       0.981
 C          14.421      -1.363       0.758
 C          12.140     -10.123       0.768
 C          13.656      -2.597       0.547
 C          11.650       3.644      -0.046
 C          11.453     -11.358       0.439
 C          12.194      -2.587       0.429
 C          10.159       3.653      -0.204
 C           9.964     -11.333       0.297
 C          11.454      -3.851       0.386
 C           9.450       2.443      -0.205
 C           9.226     -12.610       0.490
 C          20.338      -1.422       0.417
 C          17.952     -10.199       0.873
 C          18.835      -1.405       0.527
 C          16.481     -10.186       1.027
 C          18.115      -2.659       0.559
 C          15.948       3.643       0.219
 C          15.754     -11.451       0.764
 C          16.651      -2.639       0.605
 C          14.525       3.654       0.198
 C          14.315     -11.441       0.740
 C          13.784       2.410       0.515
 C          13.598     -12.692       0.604
 C          15.896      -3.913       0.614
 C          14.375      -3.897       0.584
 C          12.321       2.412       0.329
 C          12.125     -12.649       0.580
 C          13.624      -5.161       0.630
 C          11.554       1.180       0.307
 C          11.368     -13.902       0.664
 C          12.154      -5.127       0.526
 C          10.114       1.186       0.048
 C           9.872     -13.840       0.627
 C          20.992      -2.690       0.468
 C          18.626     -11.443       0.552
 C          20.298      -3.953       0.576
 C          18.122       2.346       0.418
 C          17.913     -12.718       0.663
 C          18.824      -3.939       0.548
 C          16.642       2.374       0.566
 C          16.437     -12.719       0.632
 C          18.078      -5.196       0.667
 C          15.920       1.163       0.927
 C          15.729     -13.959       0.696
 C          16.611      -5.191       0.708
 C          14.459       1.172       0.908
 C          14.284     -13.943       0.671
 C          15.836      -6.388       0.971
 C          13.723      -0.080       0.760
 C          13.512     -15.192       0.705
 C          14.359      -6.377       0.934
 C          12.272      -0.077       0.503
 C          12.081     -15.155       0.703
 C          20.959      -5.236       0.576
 C          18.864       1.093       0.452
 C          18.651     -13.997       0.747
 C          20.263      -6.484       0.621
 C          18.109      -0.149       0.630
 C          17.902     -15.227       0.756
 C          18.774      -6.467       0.725
 C          16.637      -0.111       0.817
 C          16.475     -15.228       0.720
 C          18.005      -7.694       0.907
 C          15.678     -16.478       0.603
 C          16.539      -7.676       1.108
 C          14.276     -16.463       0.599
 C          20.924      -7.757       0.554
 C          20.171      -8.980       0.615
 C          18.720      -8.968       0.830
 C          20.843     -10.260       0.421
 C          20.120     -11.460       0.457
 C          11.424      -6.380       0.563
 C          21.013       2.301      -0.020
 C          20.830     -12.748       0.674
 C          20.301       1.062       0.223
 C          20.151     -13.968       0.754
 C          21.020      -0.180       0.257
 C           9.938      -6.361       0.388
 C           9.978      -3.825       0.341
 C          10.014      -1.299       0.205
 C           9.320      -2.542       0.197
 C           9.281      -5.094       0.318
 C           9.257      -7.611       0.316
 C           9.365      -0.033       0.043
