   142
 frame    499
 H          22.172       4.851      -0.067
 H          20.938       7.032      -0.099
 H          18.753       8.311      -0.074
 H          14.063       9.635      -0.055
 H          16.571       9.603      -0.037
 H           9.637       7.173      -0.196
 H           8.348       5.026      -0.217
 H          11.850       8.399      -0.126
 H           8.142     -10.125       0.251
 H           8.313       2.496      -0.186
 H           8.113     -12.652       0.384
 H           9.346     -14.828       0.525
 H          11.529     -16.106       0.629
 H          16.217     -17.428       0.736
 H          13.711     -17.396       0.717
 H          20.647     -14.970       0.637
 H          22.082      -2.727       0.249
 H          22.049      -5.248       0.355
 H          22.011      -7.770       0.426
 H          21.972     -10.296       0.489
 H          22.143       2.322       0.013
 H          21.936     -12.823       0.564
 H          18.431     -16.193       0.686
 H          22.114      -0.204       0.122
 H           8.238      -2.554      -0.062
 H           8.203      -5.077       0.031
 H           8.170      -7.600       0.134
 H           8.273      -0.032      -0.137
 C          18.885       3.569      -0.217
 C          20.359       3.561      -0.024
 C          21.051       4.871      -0.061
 C          16.696       4.892      -0.231
 C          18.156       4.847      -0.244
 C          18.901       6.128      -0.295
 C          20.387       6.075      -0.235
 C          12.376       4.918      -0.305
 C          13.827       4.927      -0.257
 C          14.561       6.178      -0.209
 C          15.990       6.160      -0.196
 C          16.761       7.401      -0.258
 C          18.212       7.363      -0.266
 C          11.656       6.216      -0.364
 C          12.367       7.443      -0.322
 C          13.822       7.432      -0.283
 C          14.600       8.670      -0.187
 C          16.008       8.653      -0.178
 C           9.464       5.018      -0.192
 C          10.163       6.206      -0.324
 C          13.596      -7.643      -0.227
 C          12.150      -7.655       0.084
 C          11.407      -8.901       0.068
 C           9.950      -8.880       0.161
 C          11.544      -1.342      -0.076
 C           9.239     -10.125       0.333
 C          15.837      -8.928      -0.341
 C          14.331      -8.910      -0.371
 C          15.924      -1.458      -0.335
 C          13.622     -10.182      -0.210
 C          14.435      -1.437      -0.364
 C          12.163     -10.140      -0.031
 C          13.694      -2.645      -0.008
 C          11.602       3.662      -0.327
 C          11.400     -11.371       0.185
 C          12.243      -2.607      -0.038
 C          10.125       3.692      -0.149
 C           9.913     -11.357       0.359
 C          11.484      -3.861       0.000
 C           9.417       2.476      -0.123
 C           9.226     -12.674       0.417
 C          20.310      -1.441       0.056
 C          17.962     -10.206       0.059
 C          18.812      -1.437       0.061
 C          16.512     -10.219      -0.149
 C          18.077      -2.687       0.070
 C          15.962       3.634      -0.354
 C          15.769     -11.480       0.128
 C          16.628      -2.675       0.052
 C          14.525       3.653      -0.376
 C          14.323     -11.459       0.108
 C          13.801       2.371      -0.616
 C          13.592     -12.691       0.291
 C          15.878      -3.909       0.250
 C          14.407      -3.892       0.226
 C          12.326       2.390      -0.443
 C          12.131     -12.649       0.260
 C          13.668      -5.138       0.065
 C          11.547       1.175      -0.258
 C          11.389     -13.932       0.264
 C          12.209      -5.133       0.037
 C          10.088       1.192      -0.179
 C           9.903     -13.878       0.338
 C          20.984      -2.701       0.164
 C          18.684     -11.458       0.286
 C          20.271      -3.957       0.266
 C          18.127       2.314      -0.351
 C          17.929     -12.715       0.328
 C          18.804      -3.948       0.137
 C          16.664       2.336      -0.565
 C          16.468     -12.733       0.315
 C          18.041      -5.207       0.137
 C          15.965       1.054      -0.660
 C          15.727     -13.978       0.404
 C          16.591      -5.179       0.108
 C          14.467       1.071      -0.688
 C          14.300     -13.961       0.388
 C          15.863      -6.399      -0.211
 C          13.708      -0.163      -0.457
 C          13.515     -15.195       0.400
 C          14.368      -6.383      -0.235
 C          12.267      -0.088      -0.155
 C          12.066     -15.170       0.379
 C          20.949      -5.238       0.250
 C          18.873       1.086      -0.146
 C          18.638     -14.026       0.344
 C          20.248      -6.499       0.232
 C          18.129      -0.166      -0.058
 C          17.919     -15.243       0.440
 C          18.749      -6.460       0.233
 C          16.690      -0.194      -0.386
 C          16.472     -15.232       0.419
 C          18.034      -7.727       0.186
 C          15.686     -16.451       0.567
 C          16.602      -7.682      -0.163
 C          14.271     -16.435       0.556
 C          20.915      -7.780       0.296
 C          20.194      -9.005       0.343
 C          18.749      -8.990       0.190
 C          20.869     -10.267       0.528
 C          20.166     -11.488       0.504
 C          11.465      -6.373       0.078
 C          21.040       2.326       0.057
 C          20.818     -12.817       0.548
 C          20.336       1.070      -0.016
 C          20.125     -14.010       0.453
 C          21.017      -0.177       0.006
 C           9.980      -6.372       0.007
 C          10.010      -3.831       0.051
 C          10.054      -1.304      -0.165
 C           9.340      -2.556      -0.101
 C           9.309      -5.100      -0.017
 C           9.277      -7.638       0.044
 C           9.378      -0.031      -0.213
