   142
 frame    529
 H          22.172       4.851      -0.067
 H          20.938       7.032      -0.099
 H          18.753       8.311      -0.074
 H          14.063       9.635      -0.055
 H          16.571       9.603      -0.037
 H           9.637       7.173      -0.196
 H           8.348       5.026      -0.217
 H          11.850       8.399      -0.126
 H           8.142     -10.125       0.251
 H           8.313       2.496      -0.186
 H           8.113     -12.652       0.384
 H           9.346     -14.828       0.525
 H          11.529     -16.106       0.629
 H          16.217     -17.428       0.736
 H          13.711     -17.396       0.717
 H          20.647     -14.970       0.637
 H          22.082      -2.727       0.249
 H          22.049      -5.248       0.355
 H          22.011      -7.770       0.426
 H          21.972     -10.296       0.489
 H          22.143       2.322       0.013
 H          21.936     -12.823       0.564
 H          18.431     -16.193       0.686
 H          22.114      -0.204       0.122
 H           8.238      -2.554      -0.062
 H           8.203      -5.077       0.031
 H           8.170      -7.600       0.134
 H           8.273      -0.032      -0.137
 C          18.892       3.585       0.049
 C          20.348       3.558       0.054
 C          21.047       4.880      -0.020
 C          16.708       4.837      -0.282
 C          18.166       4.841      -0.128
 C          18.894       6.139      -0.147
 C          20.364       6.090      -0.044
 C          12.355       4.903      -0.197
 C          13.806       4.877      -0.326
 C          14.550       6.126      -0.288
 C          16.000       6.105      -0.282
 C          16.744       7.358      -0.225
 C          18.188       7.369      -0.188
 C          11.656       6.231      -0.227
 C          12.395       7.441      -0.219
 C          13.843       7.395      -0.247
 C          14.610       8.647      -0.150
 C          16.005       8.632      -0.146
 C           9.474       5.018      -0.166
 C          10.186       6.213      -0.165
 C          13.652      -7.659      -0.072
 C          12.185      -7.649      -0.168
 C          11.461      -8.865       0.132
 C          10.001      -8.843       0.216
 C          11.544      -1.347      -0.191
 C           9.264     -10.106       0.257
 C          15.811      -8.943      -0.080
 C          14.356      -8.924      -0.092
 C          15.915      -1.393      -0.026
 C          13.617     -10.148       0.111
 C          14.450      -1.383      -0.040
 C          12.151     -10.120       0.306
 C          13.721      -2.630       0.008
 C          11.596       3.664      -0.035
 C          11.406     -11.375       0.452
 C          12.260      -2.628      -0.089
 C          10.131       3.686      -0.089
 C           9.935     -11.351       0.427
 C          11.527      -3.860      -0.051
 C           9.430       2.450      -0.150
 C           9.235     -12.669       0.418
 C          20.285      -1.460       0.103
 C          17.976     -10.201       0.398
 C          18.813      -1.438      -0.056
 C          16.504     -10.187       0.152
 C          18.067      -2.698       0.023
 C          15.977       3.608      -0.375
 C          15.772     -11.443       0.122
 C          16.602      -2.670       0.036
 C          14.517       3.629      -0.388
 C          14.314     -11.430       0.104
 C          13.793       2.379      -0.297
 C          13.576     -12.655       0.247
 C          15.877      -3.919      -0.089
 C          14.420      -3.903      -0.108
 C          12.310       2.392      -0.113
 C          12.123     -12.642       0.375
 C          13.679      -5.142       0.079
 C          11.591       1.146      -0.214
 C          11.393     -13.947       0.434
 C          12.221      -5.117      -0.017
 C          10.132       1.170      -0.122
 C           9.915     -13.883       0.495
 C          20.994      -2.723       0.082
 C          18.679     -11.469       0.555
 C          20.285      -3.973      -0.045
 C          18.153       2.326      -0.033
 C          17.922     -12.714       0.444
 C          18.769      -3.944       0.095
 C          16.676       2.339      -0.265
 C          16.469     -12.689       0.288
 C          18.039      -5.181       0.093
 C          15.940       1.102      -0.386
 C          15.733     -13.940       0.361
 C          16.574      -5.178       0.120
 C          14.498       1.118      -0.407
 C          14.288     -13.921       0.339
 C          15.844      -6.427       0.140
 C          13.752      -0.114      -0.297
 C          13.549     -15.173       0.436
 C          14.381      -6.405       0.116
 C          12.289      -0.110      -0.402
 C          12.100     -15.177       0.469
 C          20.956      -5.243       0.194
 C          18.836       1.059      -0.088
 C          18.624     -14.038       0.506
 C          20.211      -6.482       0.283
 C          18.114      -0.179      -0.287
 C          17.878     -15.251       0.516
 C          18.735      -6.471       0.095
 C          16.647      -0.149      -0.265
 C          16.442     -15.206       0.458
 C          18.013      -7.726      -0.059
 C          15.673     -16.451       0.576
 C          16.544      -7.699      -0.034
 C          14.278     -16.436       0.563
 C          20.891      -7.743       0.427
 C          20.153      -8.969       0.415
 C          18.698      -8.967       0.263
 C          20.852     -10.247       0.452
 C          20.143     -11.482       0.573
 C          11.487      -6.383      -0.038
 C          21.028       2.317       0.007
 C          20.819     -12.820       0.575
 C          20.291       1.046       0.047
 C          20.103     -14.017       0.601
 C          20.994      -0.203       0.137
 C          10.015      -6.350       0.073
 C          10.021      -3.855      -0.283
 C          10.064      -1.338      -0.097
 C           9.338      -2.581      -0.159
 C           9.306      -5.097      -0.070
 C           9.293      -7.590       0.197
 C           9.390      -0.067      -0.078
