   142
 frame    391
 H          22.172       4.851      -0.067
 H          20.938       7.032      -0.099
 H          18.753       8.311      -0.074
 H          14.063       9.635      -0.055
 H          16.571       9.603      -0.037
 H           9.637       7.173      -0.196
 H           8.348       5.026      -0.217
 H          11.850       8.399      -0.126
 H           8.142     -10.125       0.251
 H           8.313       2.496      -0.186
 H           8.113     -12.652       0.384
 H           9.346     -14.828       0.525
 H          11.529     -16.106       0.629
 H          16.217     -17.428       0.736
 H          13.711     -17.396       0.717
 H          20.647     -14.970       0.637
 H          22.082      -2.727       0.249
 H          22.049      -5.248       0.355
 H          22.011      -7.770       0.426
 H          21.972     -10.296       0.489
 H          22.143       2.322       0.013
 H          21.936     -12.823       0.564
 H          18.431     -16.193       0.686
 H          22.114      -0.204       0.122
 H           8.238      -2.554      -0.062
 H           8.203      -5.077       0.031
 H           8.170      -7.600       0.134
 H           8.273      -0.032      -0.137
 C          18.894       3.601      -0.562
 C          20.379       3.594      -0.388
 C          21.082       4.878      -0.246
 C          16.724       4.877      -0.635
 C          18.207       4.875      -0.690
 C          18.937       6.138      -0.465
 C          20.389       6.083      -0.232
 C          12.318       4.955      -0.768
 C          13.804       4.912      -0.676
 C          14.556       6.169      -0.517
 C          16.012       6.153      -0.496
 C          16.755       7.414      -0.427
 C          18.184       7.369      -0.342
 C          11.619       6.232      -0.526
 C          12.399       7.447      -0.387
 C          13.834       7.455      -0.451
 C          14.612       8.697      -0.341
 C          16.011       8.679      -0.330
 C           9.441       5.025      -0.385
 C          10.156       6.214      -0.342
 C          13.634      -7.649      -0.263
 C          12.180      -7.647      -0.214
 C          11.438      -8.899      -0.127
 C           9.977      -8.919       0.019
 C          11.550      -1.358      -0.437
 C           9.244     -10.165       0.073
 C          15.821      -8.925      -0.309
 C          14.354      -8.909      -0.337
 C          15.903      -1.389      -0.184
 C          13.626     -10.174      -0.162
 C          14.457      -1.366      -0.208
 C          12.152     -10.164      -0.136
 C          13.724      -2.590      -0.176
 C          11.600       3.695      -0.651
 C          11.402     -11.434      -0.201
 C          12.286      -2.599      -0.251
 C          10.117       3.723      -0.532
 C           9.920     -11.414      -0.034
 C          11.578      -3.860      -0.216
 C           9.413       2.490      -0.350
 C           9.212     -12.682       0.195
 C          20.311      -1.433      -0.116
 C          17.977     -10.233      -0.029
 C          18.822      -1.447      -0.272
 C          16.505     -10.209      -0.119
 C          18.048      -2.673      -0.119
 C          15.975       3.621      -0.600
 C          15.776     -11.466      -0.136
 C          16.612      -2.631      -0.109
 C          14.519       3.635      -0.608
 C          14.319     -11.449      -0.162
 C          13.789       2.388      -0.543
 C          13.564     -12.712      -0.148
 C          15.888      -3.922      -0.053
 C          14.402      -3.900      -0.076
 C          12.316       2.410      -0.524
 C          12.086     -12.723      -0.240
 C          13.683      -5.185      -0.096
 C          11.570       1.168      -0.438
 C          11.357     -13.969       0.087
 C          12.251      -5.138      -0.148
 C          10.106       1.228      -0.291
 C           9.898     -13.885       0.308
 C          20.976      -2.729      -0.004
 C          18.696     -11.519      -0.094
 C          20.223      -3.965       0.024
 C          18.147       2.337      -0.432
 C          17.976     -12.789      -0.168
 C          18.720      -3.947      -0.041
 C          16.668       2.347      -0.513
 C          16.501     -12.746      -0.100
 C          18.016      -5.207      -0.033
 C          15.957       1.065      -0.619
 C          15.746     -13.990       0.109
 C          16.574      -5.218      -0.041
 C          14.487       1.088      -0.641
 C          14.287     -13.974       0.084
 C          15.836      -6.450      -0.030
 C          13.739      -0.150      -0.496
 C          13.535     -15.229       0.232
 C          14.393      -6.435      -0.053
 C          12.280      -0.111      -0.455
 C          12.091     -15.190       0.302
 C          20.934      -5.233       0.107
 C          18.868       1.078      -0.302
 C          18.674     -14.055       0.172
 C          20.235      -6.521       0.083
 C          18.119      -0.186      -0.344
 C          17.906     -15.259       0.346
 C          18.756      -6.469      -0.089
 C          16.667      -0.191      -0.443
 C          16.464     -15.263       0.268
 C          18.025      -7.724      -0.080
 C          15.680     -16.499       0.398
 C          16.571      -7.678      -0.206
 C          14.278     -16.479       0.393
 C          20.901      -7.812       0.282
 C          20.187      -9.038       0.225
 C          18.726      -8.987       0.016
 C          20.882     -10.308       0.265
 C          20.180     -11.542       0.112
 C          11.485      -6.379      -0.247
 C          21.050       2.351      -0.181
 C          20.842     -12.829       0.353
 C          20.325       1.098      -0.124
 C          20.124     -14.018       0.432
 C          21.003      -0.152       0.003
 C           9.992      -6.395      -0.148
 C          10.070      -3.842      -0.223
 C          10.057      -1.300      -0.333
 C           9.345      -2.583      -0.269
 C           9.318      -5.092      -0.178
 C           9.285      -7.666       0.042
 C           9.387      -0.005      -0.219
