   142
 frame    362
 H          22.172       4.851      -0.067
 H          20.938       7.032      -0.099
 H          18.753       8.311      -0.074
 H          14.063       9.635      -0.055
 H          16.571       9.603      -0.037
 H           9.637       7.173      -0.196
 H           8.348       5.026      -0.217
 H          11.850       8.399      -0.126
 H           8.142     -10.125       0.251
 H           8.313       2.496      -0.186
 H           8.113     -12.652       0.384
 H           9.346     -14.828       0.525
 H          11.529     -16.106       0.629
 H          16.217     -17.428       0.736
 H          13.711     -17.396       0.717
 H          20.647     -14.970       0.637
 H          22.082      -2.727       0.249
 H          22.049      -5.248       0.355
 H          22.011      -7.770       0.426
 H          21.972     -10.296       0.489
 H          22.143       2.322       0.013
 H          21.936     -12.823       0.564
 H          18.431     -16.193       0.686
 H          22.114      -0.204       0.122
 H           8.238      -2.554      -0.062
 H           8.203      -5.077       0.031
 H           8.170      -7.600       0.134
 H           8.273      -0.032      -0.137
 C          18.880       3.617      -0.303
 C          20.363       3.568      -0.253
 C          21.087       4.869      -0.281
 C          16.709       4.932      -0.653
 C          18.160       4.894      -0.398
 C          18.917       6.144      -0.374
 C          20.421       6.086      -0.320
 C          12.373       4.962      -0.467
 C          13.829       4.964      -0.694
 C          14.546       6.237      -0.835
 C          16.024       6.216      -0.830
 C          16.753       7.447      -0.519
 C          18.173       7.368      -0.322
 C          11.642       6.237      -0.451
 C          12.407       7.443      -0.375
 C          13.831       7.489      -0.554
 C          14.611       8.709      -0.286
 C          15.999       8.688      -0.281
 C           9.443       5.020      -0.402
 C          10.144       6.218      -0.417
 C          13.643      -7.696      -0.305
 C          12.173      -7.691      -0.360
 C          11.421      -8.927      -0.121
 C           9.968      -8.865       0.099
 C          11.535      -1.336      -0.450
 C           9.247     -10.135       0.173
 C          15.828      -8.998      -0.150
 C          14.338      -8.974      -0.187
 C          15.930      -1.418      -0.405
 C          13.606     -10.247      -0.209
 C          14.429      -1.408      -0.433
 C          12.145     -10.195      -0.122
 C          13.646      -2.610      -0.148
 C          11.614       3.706      -0.399
 C          11.405     -11.434       0.065
 C          12.199      -2.639      -0.410
 C          10.136       3.701      -0.377
 C           9.918     -11.391       0.089
 C          11.435      -3.878      -0.445
 C           9.424       2.466      -0.229
 C           9.204     -12.691       0.179
 C          20.302      -1.484      -0.049
 C          17.989     -10.270      -0.013
 C          18.831      -1.426      -0.302
 C          16.532     -10.284      -0.140
 C          18.140      -2.711      -0.276
 C          15.978       3.673      -0.667
 C          15.788     -11.539      -0.219
 C          16.678      -2.650      -0.093
 C          14.524       3.687      -0.706
 C          14.324     -11.520      -0.241
 C          13.771       2.442      -0.587
 C          13.589     -12.772      -0.162
 C          15.904      -3.904       0.106
 C          14.375      -3.888       0.070
 C          12.309       2.437      -0.505
 C          12.138     -12.712       0.068
 C          13.616      -5.151      -0.066
 C          11.559       1.190      -0.449
 C          11.380     -13.974       0.165
 C          12.166      -5.124      -0.348
 C          10.102       1.176      -0.244
 C           9.883     -13.904       0.234
 C          21.030      -2.737      -0.033
 C          18.685     -11.526       0.183
 C          20.368      -3.979      -0.188
 C          18.154       2.364      -0.413
 C          17.923     -12.794       0.148
 C          18.866      -3.967      -0.270
 C          16.697       2.407      -0.541
 C          16.482     -12.814      -0.120
 C          18.103      -5.199      -0.191
 C          15.962       1.146      -0.485
 C          15.759     -14.085      -0.219
 C          16.635      -5.189      -0.004
 C          14.472       1.163      -0.512
 C          14.275     -14.069      -0.231
 C          15.868      -6.419      -0.248
 C          13.741      -0.100      -0.545
 C          13.533     -15.272       0.128
 C          14.368      -6.404      -0.283
 C          12.276      -0.080      -0.613
 C          12.112     -15.186       0.313
 C          20.986      -5.226       0.066
 C          18.871       1.093      -0.325
 C          18.648     -14.060       0.252
 C          20.227      -6.468       0.144
 C          18.123      -0.155      -0.487
 C          17.877     -15.259       0.379
 C          18.766      -6.502      -0.126
 C          16.656      -0.138      -0.495
 C          16.459     -15.309       0.152
 C          18.025      -7.766      -0.241
 C          15.669     -16.508       0.460
 C          16.559      -7.735      -0.251
 C          14.282     -16.497       0.444
 C          20.889      -7.740       0.378
 C          20.180      -8.995       0.301
 C          18.736      -9.017       0.015
 C          20.868     -10.279       0.382
 C          20.177     -11.513       0.251
 C          11.472      -6.413      -0.291
 C          21.031       2.324      -0.059
 C          20.851     -12.838       0.318
 C          20.317       1.051      -0.053
 C          20.148     -14.034       0.332
 C          20.991      -0.218       0.087
 C           9.995      -6.334      -0.095
 C           9.932      -3.853      -0.435
 C          10.056      -1.358      -0.269
 C           9.300      -2.595      -0.295
 C           9.272      -5.080      -0.201
 C           9.294      -7.589       0.132
 C           9.396      -0.076      -0.127
