   142
 frame    575
 H          22.172       4.851      -0.067
 H          20.938       7.032      -0.099
 H          18.753       8.311      -0.074
 H          14.063       9.635      -0.055
 H          16.571       9.603      -0.037
 H           9.637       7.173      -0.196
 H           8.348       5.026      -0.217
 H          11.850       8.399      -0.126
 H           8.142     -10.125       0.251
 H           8.313       2.496      -0.186
 H           8.113     -12.652       0.384
 H           9.346     -14.828       0.525
 H          11.529     -16.106       0.629
 H          16.217     -17.428       0.736
 H          13.711     -17.396       0.717
 H          20.647     -14.970       0.637
 H          22.082      -2.727       0.249
 H          22.049      -5.248       0.355
 H          22.011      -7.770       0.426
 H          21.972     -10.296       0.489
 H          22.143       2.322       0.013
 H          21.936     -12.823       0.564
 H          18.431     -16.193       0.686
 H          22.114      -0.204       0.122
 H           8.238      -2.554      -0.062
 H           8.203      -5.077       0.031
 H           8.170      -7.600       0.134
 H           8.273      -0.032      -0.137
 C          18.874       3.653      -0.052
 C          20.353       3.613       0.054
 C          21.074       4.917       0.014
 C          16.705       4.891      -0.159
 C          18.160       4.910      -0.052
 C          18.901       6.159       0.030
 C          20.371       6.103       0.067
 C          12.362       4.980      -0.116
 C          13.806       4.938      -0.195
 C          14.558       6.172      -0.203
 C          15.996       6.146      -0.193
 C          16.754       7.391      -0.121
 C          18.194       7.381       0.012
 C          11.641       6.257      -0.037
 C          12.386       7.454      -0.044
 C          13.831       7.438      -0.169
 C          14.609       8.673      -0.154
 C          16.006       8.651      -0.132
 C           9.444       5.060      -0.104
 C          10.174       6.236      -0.019
 C          13.633      -7.619       0.410
 C          12.176      -7.623       0.302
 C          11.452      -8.902       0.278
 C           9.971      -8.879       0.161
 C          11.562      -1.344      -0.181
 C           9.242     -10.148       0.275
 C          15.815      -8.910       0.592
 C          14.330      -8.885       0.564
 C          15.903      -1.397      -0.119
 C          13.604     -10.145       0.448
 C          14.455      -1.381      -0.157
 C          12.151     -10.175       0.302
 C          13.724      -2.611      -0.249
 C          11.613       3.748      -0.150
 C          11.409     -11.458       0.339
 C          12.262      -2.617      -0.335
 C          10.132       3.742      -0.089
 C           9.921     -11.395       0.427
 C          11.536      -3.862      -0.255
 C           9.418       2.503      -0.145
 C           9.215     -12.703       0.478
 C          20.275      -1.430      -0.041
 C          17.973     -10.250       0.387
 C          18.793      -1.434      -0.064
 C          16.510     -10.184       0.504
 C          18.075      -2.694      -0.223
 C          15.974       3.658      -0.086
 C          15.778     -11.466       0.417
 C          16.606      -2.652      -0.174
 C          14.513       3.675      -0.103
 C          14.306     -11.448       0.408
 C          13.784       2.406       0.036
 C          13.573     -12.699       0.384
 C          15.881      -3.920      -0.115
 C          14.416      -3.904      -0.149
 C          12.319       2.459      -0.106
 C          12.118     -12.706       0.455
 C          13.682      -5.185      -0.165
 C          11.592       1.201      -0.050
 C          11.377     -13.959       0.616
 C          12.218      -5.130      -0.236
 C          10.108       1.208      -0.168
 C           9.913     -13.889       0.643
 C          20.957      -2.700       0.137
 C          18.679     -11.546       0.448
 C          20.249      -3.966       0.085
 C          18.134       2.379      -0.026
 C          17.932     -12.778       0.533
 C          18.773      -3.955      -0.118
 C          16.667       2.362       0.080
 C          16.480     -12.726       0.405
 C          18.055      -5.209      -0.118
 C          15.943       1.113       0.253
 C          15.730     -13.964       0.454
 C          16.582      -5.219      -0.107
 C          14.467       1.125       0.230
 C          14.291     -13.956       0.441
 C          15.834      -6.440       0.051
 C          13.736      -0.137       0.157
 C          13.525     -15.194       0.558
 C          14.387      -6.423       0.023
 C          12.284      -0.100       0.054
 C          12.084     -15.173       0.656
 C          20.922      -5.256       0.227
 C          18.826       1.106       0.052
 C          18.643     -14.046       0.710
 C          20.199      -6.511       0.144
 C          18.103      -0.166       0.135
 C          17.899     -15.246       0.722
 C          18.722      -6.464       0.146
 C          16.650      -0.174       0.202
 C          16.468     -15.228       0.575
 C          18.005      -7.696       0.395
 C          15.680     -16.459       0.625
 C          16.548      -7.652       0.469
 C          14.278     -16.443       0.613
 C          20.915      -7.775       0.226
 C          20.192      -9.010       0.349
 C          18.700      -8.988       0.390
 C          20.875     -10.296       0.479
 C          20.160     -11.522       0.587
 C          11.498      -6.372       0.007
 C          21.036       2.359       0.025
 C          20.834     -12.838       0.637
 C          20.319       1.075      -0.005
 C          20.098     -14.009       0.754
 C          21.021      -0.184      -0.048
 C          10.024      -6.389      -0.065
 C          10.047      -3.840      -0.125
 C          10.081      -1.300      -0.240
 C           9.366      -2.552      -0.107
 C           9.335      -5.108      -0.022
 C           9.274      -7.634      -0.008
 C           9.375      -0.033      -0.269
