   142
 frame     77
 H          22.172       4.851      -0.067
 H          20.938       7.032      -0.099
 H          18.753       8.311      -0.074
 H          14.063       9.635      -0.055
 H          16.571       9.603      -0.037
 H           9.637       7.173      -0.196
 H           8.348       5.026      -0.217
 H          11.850       8.399      -0.126
 H           8.142     -10.125       0.251
 H           8.313       2.496      -0.186
 H           8.113     -12.652       0.384
 H           9.346     -14.828       0.525
 H          11.529     -16.106       0.629
 H          16.217     -17.428       0.736
 H          13.711     -17.396       0.717
 H          20.647     -14.970       0.637
 H          22.082      -2.727       0.249
 H          22.049      -5.248       0.355
 H          22.011      -7.770       0.426
 H          21.972     -10.296       0.489
 H          22.143       2.322       0.013
 H          21.936     -12.823       0.564
 H          18.431     -16.193       0.686
 H          22.114      -0.204       0.122
 H           8.238      -2.554      -0.062
 H           8.203      -5.077       0.031
 H           8.170      -7.600       0.134
 H           8.273      -0.032      -0.137
 C          18.867       3.569      -0.098
 C          20.338       3.562      -0.060
 C          21.061       4.873      -0.039
 C          16.712       4.845      -0.110
 C          18.168       4.843      -0.083
 C          18.916       6.134      -0.049
 C          20.394       6.084      -0.060
 C          12.347       4.919      -0.152
 C          13.804       4.886      -0.139
 C          14.543       6.148      -0.104
 C          16.008       6.129      -0.089
 C          16.753       7.398      -0.059
 C          18.195       7.364      -0.057
 C          11.637       6.229      -0.123
 C          12.386       7.439      -0.106
 C          13.828       7.434      -0.085
 C          14.609       8.673      -0.062
 C          16.003       8.655      -0.052
 C           9.461       5.023      -0.171
 C          10.161       6.216      -0.158
 C          13.637      -7.663       0.096
 C          12.186      -7.606       0.256
 C          11.445      -8.834       0.440
 C           9.979      -8.836       0.292
 C          11.517      -1.351      -0.070
 C           9.258     -10.115       0.225
 C          15.795      -8.890       0.496
 C          14.346      -8.876       0.472
 C          15.945      -1.378      -0.505
 C          13.598     -10.117       0.545
 C          14.433      -1.365      -0.538
 C          12.138     -10.100       0.413
 C          13.720      -2.610      -0.423
 C          11.615       3.666      -0.189
 C          11.410     -11.371       0.330
 C          12.233      -2.617      -0.408
 C          10.147       3.694      -0.198
 C           9.940     -11.362       0.321
 C          11.483      -3.872      -0.229
 C           9.434       2.462      -0.215
 C           9.222     -12.665       0.428
 C          20.301      -1.441       0.265
 C          17.967     -10.174       0.516
 C          18.829      -1.443       0.077
 C          16.502     -10.153       0.592
 C          18.110      -2.690      -0.286
 C          15.966       3.584      -0.040
 C          15.766     -11.392       0.496
 C          16.621      -2.650      -0.384
 C          14.509       3.600      -0.055
 C          14.308     -11.374       0.473
 C          13.763       2.374       0.079
 C          13.573     -12.643       0.447
 C          15.845      -3.932      -0.319
 C          14.453      -3.918      -0.351
 C          12.310       2.389      -0.037
 C          12.116     -12.638       0.437
 C          13.687      -5.186      -0.343
 C          11.590       1.143       0.067
 C          11.373     -13.918       0.537
 C          12.196      -5.151      -0.314
 C          10.126       1.177      -0.070
 C           9.897     -13.872       0.507
 C          20.964      -2.713       0.390
 C          18.672     -11.459       0.444
 C          20.247      -3.962       0.298
 C          18.130       2.316       0.033
 C          17.934     -12.711       0.516
 C          18.815      -3.963      -0.069
 C          16.672       2.335       0.128
 C          16.478     -12.680       0.488
 C          18.077      -5.212      -0.167
 C          15.929       1.087       0.127
 C          15.742     -13.939       0.563
 C          16.577      -5.219      -0.287
 C          14.482       1.112       0.095
 C          14.279     -13.919       0.546
 C          15.873      -6.487      -0.316
 C          13.751      -0.116      -0.177
 C          13.531     -15.182       0.621
 C          14.366      -6.468      -0.351
 C          12.295      -0.121      -0.026
 C          12.089     -15.149       0.604
 C          20.928      -5.206       0.499
 C          18.825       1.059       0.186
 C          18.644     -14.006       0.618
 C          20.227      -6.465       0.454
 C          18.090      -0.198       0.104
 C          17.897     -15.221       0.659
 C          18.769      -6.451       0.276
 C          16.646      -0.150      -0.136
 C          16.454     -15.220       0.648
 C          17.998      -7.678       0.361
 C          15.673     -16.459       0.694
 C          16.551      -7.698       0.157
 C          14.278     -16.443       0.683
 C          20.893      -7.730       0.484
 C          20.171      -8.968       0.492
 C          18.698      -8.927       0.572
 C          20.862     -10.261       0.428
 C          20.144     -11.485       0.477
 C          11.451      -6.361       0.123
 C          21.022       2.315      -0.046
 C          20.825     -12.803       0.581
 C          20.291       1.054       0.081
 C          20.121     -13.994       0.623
 C          20.993      -0.196       0.174
 C           9.974      -6.337       0.246
 C          10.035      -3.834       0.071
 C          10.042      -1.316       0.060
 C           9.348      -2.573       0.158
 C           9.314      -5.061       0.249
 C           9.281      -7.587       0.241
 C           9.386      -0.050      -0.029
