   142
 frame    777
 H          22.172       4.851      -0.067
 H          20.938       7.032      -0.099
 H          18.753       8.311      -0.074
 H          14.063       9.635      -0.055
 H          16.571       9.603      -0.037
 H           9.637       7.173      -0.196
 H           8.348       5.026      -0.217
 H          11.850       8.399      -0.126
 H           8.142     -10.125       0.251
 H           8.313       2.496      -0.186
 H           8.113     -12.652       0.384
 H           9.346     -14.828       0.525
 H          11.529     -16.106       0.629
 H          16.217     -17.428       0.736
 H          13.711     -17.396       0.717
 H          20.647     -14.970       0.637
 H          22.082      -2.727       0.249
 H          22.049      -5.248       0.355
 H          22.011      -7.770       0.426
 H          21.972     -10.296       0.489
 H          22.143       2.322       0.013
 H          21.936     -12.823       0.564
 H          18.431     -16.193       0.686
 H          22.114      -0.204       0.122
 H           8.238      -2.554      -0.062
 H           8.203      -5.077       0.031
 H           8.170      -7.600       0.134
 H           8.273      -0.032      -0.137
 C          18.854       3.612       0.316
 C          20.304       3.587       0.137
 C          21.035       4.839      -0.082
 C          16.688       4.889       0.468
 C          18.156       4.865       0.349
 C          18.895       6.089      -0.038
 C          20.366       6.051      -0.215
 C          12.356       4.942       0.279
 C          13.814       4.922       0.428
 C          14.529       6.149       0.217
 C          16.004       6.131       0.215
 C          16.754       7.399       0.101
 C          18.176       7.353      -0.088
 C          11.660       6.172      -0.110
 C          12.406       7.429      -0.139
 C          13.820       7.437       0.071
 C          14.616       8.709       0.140
 C          15.992       8.690       0.153
 C           9.481       4.979      -0.194
 C          10.191       6.175      -0.313
 C          13.642      -7.660       0.652
 C          12.172      -7.646       0.601
 C          11.428      -8.910       0.552
 C           9.965      -8.874       0.454
 C          11.534      -1.314       0.338
 C           9.238     -10.144       0.483
 C          15.792      -8.928       0.810
 C          14.351      -8.906       0.785
 C          15.899      -1.363       0.398
 C          13.607     -10.145       0.840
 C          14.443      -1.352       0.363
 C          12.153     -10.147       0.695
 C          13.699      -2.581       0.493
 C          11.628       3.710       0.215
 C          11.426     -11.394       0.741
 C          12.243      -2.569       0.352
 C          10.182       3.712      -0.003
 C           9.970     -11.376       0.524
 C          11.527      -3.852       0.295
 C           9.407       2.495       0.049
 C           9.241     -12.643       0.402
 C          20.288      -1.431       0.265
 C          17.952     -10.224       0.809
 C          18.804      -1.405       0.489
 C          16.498     -10.184       0.902
 C          18.059      -2.651       0.500
 C          15.955       3.627       0.610
 C          15.758     -11.405       1.139
 C          16.599      -2.624       0.567
 C          14.508       3.649       0.602
 C          14.309     -11.389       1.118
 C          13.770       2.415       0.398
 C          13.584     -12.653       1.017
 C          15.864      -3.891       0.636
 C          14.406      -3.871       0.618
 C          12.317       2.452       0.252
 C          12.119     -12.645       0.870
 C          13.667      -5.144       0.611
 C          11.567       1.221       0.187
 C          11.393     -13.885       0.527
 C          12.200      -5.131       0.475
 C          10.096       1.220       0.092
 C           9.921     -13.855       0.331
 C          20.956      -2.721       0.248
 C          18.654     -11.491       0.864
 C          20.200      -3.963       0.322
 C          18.127       2.371       0.341
 C          17.925     -12.721       0.962
 C          18.754      -3.940       0.477
 C          16.666       2.377       0.436
 C          16.449     -12.689       1.063
 C          18.034      -5.203       0.614
 C          15.924       1.131       0.422
 C          15.734     -13.931       0.886
 C          16.558      -5.177       0.665
 C          14.481       1.149       0.406
 C          14.274     -13.911       0.865
 C          15.832      -6.426       0.614
 C          13.742      -0.089       0.361
 C          13.525     -15.185       0.779
 C          14.372      -6.411       0.585
 C          12.269      -0.048       0.325
 C          12.105     -15.144       0.566
 C          20.915      -5.227       0.355
 C          18.855       1.134       0.310
 C          18.632     -13.975       0.619
 C          20.216      -6.490       0.463
 C          18.106      -0.127       0.433
 C          17.880     -15.218       0.624
 C          18.741      -6.462       0.701
 C          16.638      -0.128       0.411
 C          16.450     -15.216       0.815
 C          18.006      -7.721       0.721
 C          15.667     -16.484       0.908
 C          16.541      -7.690       0.724
 C          14.284     -16.471       0.906
 C          20.902      -7.769       0.485
 C          20.183      -9.004       0.664
 C          18.707      -8.999       0.703
 C          20.868     -10.292       0.694
 C          20.105     -11.507       0.678
 C          11.460      -6.374       0.525
 C          21.040       2.368       0.226
 C          20.810     -12.792       0.559
 C          20.327       1.093       0.270
 C          20.106     -13.983       0.433
 C          21.008      -0.175       0.186
 C           9.992      -6.367       0.222
 C          10.088      -3.832       0.078
 C          10.062      -1.297       0.048
 C           9.364      -2.571      -0.014
 C           9.330      -5.080       0.082
 C           9.278      -7.630       0.239
 C           9.378      -0.025      -0.037
