   142
 frame    945
 H          22.172       4.851      -0.067
 H          20.938       7.032      -0.099
 H          18.753       8.311      -0.074
 H          14.063       9.635      -0.055
 H          16.571       9.603      -0.037
 H           9.637       7.173      -0.196
 H           8.348       5.026      -0.217
 H          11.850       8.399      -0.126
 H           8.142     -10.125       0.251
 H           8.313       2.496      -0.186
 H           8.113     -12.652       0.384
 H           9.346     -14.828       0.525
 H          11.529     -16.106       0.629
 H          16.217     -17.428       0.736
 H          13.711     -17.396       0.717
 H          20.647     -14.970       0.637
 H          22.082      -2.727       0.249
 H          22.049      -5.248       0.355
 H          22.011      -7.770       0.426
 H          21.972     -10.296       0.489
 H          22.143       2.322       0.013
 H          21.936     -12.823       0.564
 H          18.431     -16.193       0.686
 H          22.114      -0.204       0.122
 H           8.238      -2.554      -0.062
 H           8.203      -5.077       0.031
 H           8.170      -7.600       0.134
 H           8.273      -0.032      -0.137
 C          18.873       3.570       0.100
 C          20.358       3.530       0.062
 C          21.061       4.846       0.020
 C          16.763       4.830      -0.063
 C          18.198       4.834       0.115
 C          18.933       6.116       0.136
 C          20.406       6.069       0.046
 C          12.311       4.910       0.042
 C          13.763       4.869      -0.092
 C          14.538       6.127      -0.177
 C          16.019       6.106      -0.173
 C          16.761       7.360       0.006
 C          18.206       7.334       0.143
 C          11.610       6.204       0.051
 C          12.367       7.402       0.091
 C          13.809       7.399      -0.029
 C          14.590       8.630       0.021
 C          16.011       8.604       0.032
 C           9.456       4.992      -0.121
 C          10.141       6.195      -0.051
 C          13.552      -7.612       0.843
 C          12.087      -7.565       0.706
 C          11.417      -8.836       0.476
 C           9.971      -8.831       0.366
 C          11.430      -1.320       0.635
 C           9.239     -10.107       0.268
 C          15.807      -8.892       0.749
 C          14.332      -8.865       0.720
 C          15.927      -1.326       0.974
 C          13.631     -10.135       0.571
 C          14.397      -1.311       0.940
 C          12.172     -10.114       0.488
 C          13.647      -2.583       1.009
 C          11.606       3.655      -0.002
 C          11.404     -11.348       0.519
 C          12.168      -2.556       0.881
 C          10.126       3.656      -0.081
 C           9.926     -11.321       0.429
 C          11.401      -3.824       0.875
 C           9.407       2.451      -0.174
 C           9.219     -12.640       0.468
 C          20.382      -1.453       0.634
 C          17.940     -10.192       0.581
 C          18.904      -1.415       0.780
 C          16.480     -10.171       0.604
 C          18.116      -2.632       1.003
 C          15.981       3.619       0.012
 C          15.773     -11.427       0.514
 C          16.636      -2.617       1.082
 C          14.502       3.638       0.004
 C          14.299     -11.410       0.508
 C          13.799       2.386       0.154
 C          13.531     -12.629       0.496
 C          15.883      -3.864       1.022
 C          14.370      -3.854       0.989
 C          12.337       2.399       0.072
 C          12.084     -12.619       0.655
 C          13.611      -5.107       1.095
 C          11.551       1.142       0.138
 C          11.346     -13.905       0.719
 C          12.129      -5.107       0.973
 C          10.098       1.169       0.025
 C           9.869     -13.860       0.612
 C          21.026      -2.721       0.558
 C          18.675     -11.439       0.616
 C          20.319      -3.948       0.739
 C          18.110       2.327       0.156
 C          17.959     -12.695       0.708
 C          18.849      -3.916       1.027
 C          16.653       2.352       0.191
 C          16.516     -12.663       0.515
 C          18.087      -5.179       1.094
 C          15.943       1.097       0.391
 C          15.743     -13.926       0.449
 C          16.602      -5.143       1.157
 C          14.467       1.115       0.380
 C          14.270     -13.905       0.445
 C          15.854      -6.416       1.146
 C          13.663      -0.098       0.591
 C          13.520     -15.138       0.660
 C          14.330      -6.396       1.120
 C          12.196      -0.115       0.441
 C          12.083     -15.120       0.793
 C          21.000      -5.198       0.655
 C          18.865       1.056       0.250
 C          18.661     -13.995       0.796
 C          20.310      -6.446       0.819
 C          18.177      -0.188       0.542
 C          17.903     -15.193       0.851
 C          18.836      -6.421       0.979
 C          16.708      -0.129       0.641
 C          16.471     -15.174       0.678
 C          18.074      -7.641       0.810
 C          15.685     -16.410       0.754
 C          16.604      -7.648       0.912
 C          14.264     -16.391       0.746
 C          20.926      -7.734       0.603
 C          20.173      -8.962       0.557
 C          18.721      -8.933       0.609
 C          20.874     -10.244       0.464
 C          20.157     -11.447       0.588
 C          11.354      -6.333       0.820
 C          21.047       2.310       0.008
 C          20.837     -12.781       0.635
 C          20.319       1.049       0.207
 C          20.148     -13.985       0.735
 C          21.035      -0.195       0.323
 C           9.881      -6.312       0.596
 C           9.949      -3.816       0.507
 C           9.965      -1.325       0.406
 C           9.277      -2.574       0.285
 C           9.244      -5.048       0.380
 C           9.240      -7.587       0.363
 C           9.343      -0.053       0.101
