   142
 frame    943
 H          22.172       4.851      -0.067
 H          20.938       7.032      -0.099
 H          18.753       8.311      -0.074
 H          14.063       9.635      -0.055
 H          16.571       9.603      -0.037
 H           9.637       7.173      -0.196
 H           8.348       5.026      -0.217
 H          11.850       8.399      -0.126
 H           8.142     -10.125       0.251
 H           8.313       2.496      -0.186
 H           8.113     -12.652       0.384
 H           9.346     -14.828       0.525
 H          11.529     -16.106       0.629
 H          16.217     -17.428       0.736
 H          13.711     -17.396       0.717
 H          20.647     -14.970       0.637
 H          22.082      -2.727       0.249
 H          22.049      -5.248       0.355
 H          22.011      -7.770       0.426
 H          21.972     -10.296       0.489
 H          22.143       2.322       0.013
 H          21.936     -12.823       0.564
 H          18.431     -16.193       0.686
 H          22.114      -0.204       0.122
 H           8.238      -2.554      -0.062
 H           8.203      -5.077       0.031
 H           8.170      -7.600       0.134
 H           8.273      -0.032      -0.137
 C          18.880       3.579       0.110
 C          20.362       3.539       0.067
 C          21.063       4.852       0.018
 C          16.755       4.828      -0.056
 C          18.192       4.833       0.131
 C          18.931       6.122       0.133
 C          20.404       6.074       0.036
 C          12.319       4.906       0.059
 C          13.767       4.868      -0.084
 C          14.540       6.121      -0.200
 C          16.018       6.097      -0.196
 C          16.749       7.361       0.003
 C          18.198       7.333       0.143
 C          11.612       6.209       0.043
 C          12.374       7.402       0.092
 C          13.822       7.399      -0.032
 C          14.594       8.638       0.019
 C          16.009       8.619       0.030
 C           9.452       4.998      -0.124
 C          10.142       6.197      -0.058
 C          13.564      -7.613       0.840
 C          12.097      -7.572       0.710
 C          11.413      -8.846       0.488
 C           9.963      -8.836       0.385
 C          11.441      -1.324       0.643
 C           9.244     -10.106       0.283
 C          15.800      -8.885       0.750
 C          14.338      -8.861       0.717
 C          15.925      -1.324       0.952
 C          13.629     -10.135       0.579
 C          14.401      -1.309       0.918
 C          12.171     -10.115       0.478
 C          13.643      -2.575       1.020
 C          11.600       3.665       0.003
 C          11.400     -11.355       0.528
 C          12.174      -2.565       0.872
 C          10.117       3.667      -0.075
 C           9.920     -11.329       0.435
 C          11.416      -3.825       0.864
 C           9.414       2.449      -0.157
 C           9.213     -12.645       0.469
 C          20.366      -1.451       0.630
 C          17.945     -10.193       0.567
 C          18.895      -1.419       0.785
 C          16.480     -10.174       0.611
 C          18.109      -2.642       0.996
 C          15.982       3.618       0.013
 C          15.775     -11.428       0.513
 C          16.641      -2.605       1.091
 C          14.503       3.636       0.006
 C          14.298     -11.408       0.510
 C          13.799       2.387       0.159
 C          13.536     -12.627       0.501
 C          15.891      -3.866       1.069
 C          14.359      -3.854       1.037
 C          12.333       2.400       0.059
 C          12.087     -12.614       0.669
 C          13.605      -5.118       1.101
 C          11.547       1.151       0.154
 C          11.348     -13.906       0.717
 C          12.134      -5.096       0.966
 C          10.092       1.178       0.040
 C           9.875     -13.860       0.605
 C          21.026      -2.719       0.565
 C          18.679     -11.447       0.624
 C          20.318      -3.946       0.743
 C          18.115       2.326       0.145
 C          17.956     -12.688       0.724
 C          18.838      -3.918       1.018
 C          16.655       2.354       0.194
 C          16.511     -12.662       0.523
 C          18.080      -5.169       1.086
 C          15.938       1.091       0.391
 C          15.744     -13.918       0.424
 C          16.608      -5.156       1.163
 C          14.475       1.110       0.380
 C          14.271     -13.897       0.425
 C          15.848      -6.417       1.124
 C          13.674      -0.096       0.586
 C          13.532     -15.138       0.657
 C          14.337      -6.400       1.098
 C          12.207      -0.108       0.444
 C          12.090     -15.119       0.793
 C          20.998      -5.200       0.661
 C          18.866       1.065       0.264
 C          18.659     -13.998       0.795
 C          20.295      -6.441       0.815
 C          18.164      -0.178       0.545
 C          17.895     -15.192       0.851
 C          18.829      -6.417       0.986
 C          16.696      -0.130       0.636
 C          16.457     -15.173       0.676
 C          18.063      -7.648       0.816
 C          15.681     -16.423       0.752
 C          16.591      -7.648       0.908
 C          14.268     -16.404       0.744
 C          20.921      -7.727       0.607
 C          20.180      -8.968       0.576
 C          18.727      -8.944       0.622
 C          20.868     -10.242       0.480
 C          20.163     -11.453       0.594
 C          11.365      -6.328       0.826
 C          21.043       2.310       0.024
 C          20.840     -12.783       0.635
 C          20.327       1.054       0.222
 C          20.141     -13.986       0.727
 C          21.032      -0.200       0.329
 C           9.896      -6.307       0.593
 C           9.952      -3.813       0.512
 C           9.977      -1.325       0.403
 C           9.281      -2.573       0.294
 C           9.245      -5.051       0.387
 C           9.243      -7.582       0.367
 C           9.345      -0.057       0.103
