   142
 frame     33
 H          22.172       4.851      -0.067
 H          20.938       7.032      -0.099
 H          18.753       8.311      -0.074
 H          14.063       9.635      -0.055
 H          16.571       9.603      -0.037
 H           9.637       7.173      -0.196
 H           8.348       5.026      -0.217
 H          11.850       8.399      -0.126
 H           8.142     -10.125       0.251
 H           8.313       2.496      -0.186
 H           8.113     -12.652       0.384
 H           9.346     -14.828       0.525
 H          11.529     -16.106       0.629
 H          16.217     -17.428       0.736
 H          13.711     -17.396       0.717
 H          20.647     -14.970       0.637
 H          22.082      -2.727       0.249
 H          22.049      -5.248       0.355
 H          22.011      -7.770       0.426
 H          21.972     -10.296       0.489
 H          22.143       2.322       0.013
 H          21.936     -12.823       0.564
 H          18.431     -16.193       0.686
 H          22.114      -0.204       0.122
 H           8.238      -2.554      -0.062
 H           8.203      -5.077       0.031
 H           8.170      -7.600       0.134
 H           8.273      -0.032      -0.137
 C          18.878       3.592      -0.029
 C          20.352       3.575      -0.029
 C          21.064       4.869      -0.061
 C          16.712       4.869      -0.058
 C          18.169       4.859      -0.056
 C          18.909       6.129      -0.071
 C          20.383       6.074      -0.078
 C          12.347       4.931      -0.120
 C          13.804       4.906      -0.090
 C          14.544       6.159      -0.084
 C          16.002       6.142      -0.071
 C          16.751       7.398      -0.067
 C          18.191       7.357      -0.071
 C          11.641       6.221      -0.140
 C          12.388       7.432      -0.119
 C          13.829       7.435      -0.090
 C          14.608       8.671      -0.066
 C          16.002       8.653      -0.056
 C           9.455       5.014      -0.189
 C          10.167       6.202      -0.177
 C          13.633      -7.636       0.415
 C          12.181      -7.628       0.233
 C          11.446      -8.871       0.264
 C           9.967      -8.859       0.246
 C          11.520      -1.331       0.074
 C           9.252     -10.133       0.289
 C          15.804      -8.914       0.368
 C          14.348      -8.896       0.338
 C          15.908      -1.404       0.252
 C          13.607     -10.148       0.366
 C          14.434      -1.388       0.197
 C          12.144     -10.137       0.361
 C          13.701      -2.618      -0.059
 C          11.608       3.683      -0.122
 C          11.405     -11.395       0.405
 C          12.245      -2.604       0.128
 C          10.133       3.703      -0.159
 C           9.931     -11.375       0.363
 C          11.476      -3.850       0.246
 C           9.424       2.474      -0.156
 C           9.220     -12.668       0.410
 C          20.300      -1.453       0.151
 C          17.972     -10.210       0.462
 C          18.821      -1.431       0.199
 C          16.511     -10.186       0.416
 C          18.068      -2.682       0.252
 C          15.971       3.609      -0.054
 C          15.771     -11.431       0.479
 C          16.595      -2.672       0.025
 C          14.513       3.627      -0.075
 C          14.312     -11.412       0.457
 C          13.776       2.381      -0.091
 C          13.569     -12.670       0.504
 C          15.978      -3.923      -0.523
 C          14.335      -3.915      -0.581
 C          12.315       2.402      -0.093
 C          12.114     -12.657       0.474
 C          13.671      -5.143       0.045
 C          11.582       1.153      -0.105
 C          11.373     -13.926       0.519
 C          12.223      -5.111       0.224
 C          10.106       1.181      -0.118
 C           9.901     -13.871       0.487
 C          20.974      -2.717       0.202
 C          18.678     -11.486       0.515
 C          20.269      -3.967       0.292
 C          18.138       2.330      -0.005
 C          17.936     -12.729       0.549
 C          18.795      -3.941       0.384
 C          16.676       2.344      -0.046
 C          16.481     -12.706       0.541
 C          18.012      -5.178       0.342
 C          15.937       1.105      -0.021
 C          15.738     -13.957       0.582
 C          16.570      -5.181       0.096
 C          14.485       1.125      -0.038
 C          14.280     -13.939       0.566
 C          15.833      -6.376       0.436
 C          13.725      -0.096       0.120
 C          13.531     -15.193       0.613
 C          14.375      -6.363       0.413
 C          12.278      -0.101      -0.049
 C          12.090     -15.153       0.591
 C          20.941      -5.233       0.307
 C          18.839       1.062       0.017
 C          18.643     -14.017       0.599
 C          20.227      -6.479       0.362
 C          18.109      -0.179       0.047
 C          17.894     -15.225       0.645
 C          18.744      -6.448       0.425
 C          16.657      -0.138       0.155
 C          16.453     -15.230       0.639
 C          18.004      -7.698       0.356
 C          15.674     -16.465       0.689
 C          16.545      -7.670       0.476
 C          14.280     -16.447       0.678
 C          20.906      -7.755       0.397
 C          20.184      -8.988       0.443
 C          18.708      -8.963       0.404
 C          20.864     -10.278       0.489
 C          20.151     -11.503       0.519
 C          11.464      -6.365       0.266
 C          21.031       2.330       0.013
 C          20.829     -12.813       0.562
 C          20.316       1.056       0.053
 C          20.117     -13.998       0.602
 C          21.006      -0.197       0.097
 C           9.987      -6.352       0.134
 C          10.011      -3.839       0.062
 C          10.048      -1.323      -0.056
 C           9.348      -2.573      -0.060
 C           9.313      -5.090       0.034
 C           9.276      -7.611       0.152
 C           9.377      -0.051      -0.124
