142
frame	505
H  17.693000  13.826000  0.000000
H  19.858000  12.564000  0.000000
H  21.106000  10.363000  0.000000
H  22.366000  5.656000  0.000000
H  22.367000  8.165000  0.000000
H  19.852000  1.261000  0.000000
H  17.690000  -0.000000  0.000000
H  21.104000  3.459000  0.000000
H  2.530000  -0.005000  0.000000
H  15.160000  -0.002000  0.000000
H  0.000000  -0.000000  0.000000
H  -2.163000  1.262000  0.000000
H  -3.415000  3.463000  0.000000
H  -4.677000  8.168000  0.000000
H  -4.678000  5.662000  0.000000
H  -2.159000  12.565000  0.000000
H  10.109000  13.837000  0.000000
H  7.585000  13.838000  0.000000
H  5.062000  13.833000  0.000000
H  2.535000  13.828000  0.000000
H  15.163000  13.830000  0.000000
H  0.007000  13.825000  0.000000
H  -3.412000  10.366000  0.000000
H  12.635000  13.835000  0.000000
H  10.108000  -0.010000  0.000000
H  7.583000  -0.012000  0.000000
H  5.058000  -0.011000  0.000000
H  12.631000  -0.009000  0.000000
C  16.391568  10.553000  -0.061512
C  16.391568  12.029000  0.055530
C  17.670751  12.724286  0.040198
C  17.670751  8.371221  -0.100231
C  17.670751  9.823667  -0.115920
C  18.905140  10.553000  -0.156688
C  18.905140  12.029000  -0.086832
C  17.670751  4.000000  -0.115225
C  17.670751  5.453610  -0.094400
C  18.905140  6.197900  -0.007271
C  18.905140  7.631998  -0.005034
C  20.154752  8.371221  -0.041795
C  20.154752  9.823667  -0.114910
C  18.905140  3.272000  -0.144525
C  20.154752  4.000000  -0.103345
C  20.154752  5.453610  -0.026973
C  21.411000  6.197900  0.070524
C  21.411000  7.631998  0.070407
C  17.670751  1.101000  0.025650
C  18.905140  1.797813  -0.076800
C  5.067250  5.453610  -0.492960
C  5.067250  4.000000  -0.183927
C  3.815571  3.272000  -0.243516
C  3.815571  1.797813  -0.110566
C  11.361143  3.272000  -0.129743
C  2.546438  1.101000  0.030853
C  3.815571  7.631998  -0.657263
C  3.815571  6.197900  -0.679369
C  11.361143  7.631998  -0.347872
C  2.546438  5.453610  -0.528754
C  11.361143  6.197900  -0.358969
C  2.546438  4.000000  -0.282192
C  10.098375  5.453610  -0.128563
C  16.391568  3.272000  -0.091762
C  1.302141  3.272000  -0.083239
C  10.098375  4.000000  -0.088720
C  16.391568  1.797813  0.040278
C  1.302141  1.797813  0.026608
C  8.830644  3.272000  -0.162526
C  15.145562  1.101000  0.010349
C  0.021251  1.101000  0.035119
C  11.361143  12.029000  -0.073796
C  2.546438  9.823667  -0.253280
C  11.361143  10.553000  -0.063691
C  2.546438  8.371221  -0.505195
C  10.098375  9.823667  -0.053997
C  16.391568  7.631998  -0.264782
C  1.302141  7.631998  -0.294215
C  10.098375  8.371221  -0.103278
C  16.391568  6.197900  -0.277234
C  1.302141  6.197900  -0.298646
C  15.145562  5.453610  -0.510734
C  0.021251  5.453610  -0.143562
C  8.830644  7.631998  0.044615
C  8.830644  6.197900  0.044341
C  15.145562  4.000000  -0.271653
C  0.021251  4.000000  -0.148956
C  7.582124  5.453610  -0.143257
C  13.876357  3.272000  -0.225426
C  -1.214289  3.272000  -0.201399
C  7.582124  4.000000  -0.106588
C  13.876357  1.797813  -0.115699
C  -1.214289  1.797813  -0.091131
C  10.098375  12.724286  -0.056372
C  1.302141  10.553000  -0.065746
C  8.830644  12.029000  -0.015768
C  15.145562  9.823667  -0.247898
C  0.021251  9.823667  -0.140564
C  8.830644  10.553000  -0.099851
C  15.145562  8.371221  -0.492756
C  0.021251  8.371221  -0.147959
C  7.582124  9.823667  -0.066795
C  13.876357  7.631998  -0.641018
C  -1.214289  7.631998  -0.087752
C  7.582124  8.371221  -0.133837
C  13.876357  6.197900  -0.646121
C  -1.214289  6.197900  -0.081846
C  6.330357  7.631998  -0.385889
C  12.623562  5.453610  -0.465919
C  -2.463372  5.453610  -0.118899
C  6.330357  6.197900  -0.387109
C  12.623562  4.000000  -0.164997
C  -2.463372  4.000000  -0.170240
C  7.582124  12.724286  -0.055667
C  13.876357  10.553000  -0.187435
C  -1.214289  10.553000  -0.199526
C  6.330357  12.029000  -0.061986
C  12.623562  9.823667  -0.132182
C  -2.463372  9.823667  -0.173694
C  6.330357  10.553000  -0.069408
C  12.623562  8.371221  -0.429733
C  -2.463372  8.371221  -0.128924
C  5.067250  9.823667  -0.151176
C  -3.721000  7.631998  -0.048941
C  5.067250  8.371221  -0.463019
C  -3.721000  6.197900  -0.040770
C  5.067250  12.724286  -0.014235
C  3.815571  12.029000  -0.041621
C  3.815571  10.553000  -0.196025
C  2.546438  12.724286  0.101764
C  1.302141  12.029000  0.060993
C  6.330357  3.272000  -0.142424
C  15.145562  12.724286  0.055501
C  0.021251  12.724286  0.038302
C  13.876357  12.029000  -0.061778
C  -1.214289  12.029000  -0.088451
C  12.623562  12.724286  -0.041984
C  6.330357  1.797813  -0.174356
C  8.830644  1.797813  -0.116914
C  11.361143  1.797813  -0.176189
C  10.098375  1.101000  -0.195115
C  7.582124  1.101000  -0.196585
C  5.067250  1.101000  -0.138174
C  12.623562  1.101000  -0.136283
