142
frame	860
H  17.693000  13.826000  0.000000
H  19.858000  12.564000  0.000000
H  21.106000  10.363000  0.000000
H  22.366000  5.656000  0.000000
H  22.367000  8.165000  0.000000
H  19.852000  1.261000  0.000000
H  17.690000  -0.000000  0.000000
H  21.104000  3.459000  0.000000
H  2.530000  -0.005000  0.000000
H  15.160000  -0.002000  0.000000
H  0.000000  -0.000000  0.000000
H  -2.163000  1.262000  0.000000
H  -3.415000  3.463000  0.000000
H  -4.677000  8.168000  0.000000
H  -4.678000  5.662000  0.000000
H  -2.159000  12.565000  0.000000
H  10.109000  13.837000  0.000000
H  7.585000  13.838000  0.000000
H  5.062000  13.833000  0.000000
H  2.535000  13.828000  0.000000
H  15.163000  13.830000  0.000000
H  0.007000  13.825000  0.000000
H  -3.412000  10.366000  0.000000
H  12.635000  13.835000  0.000000
H  10.108000  -0.010000  0.000000
H  7.583000  -0.012000  0.000000
H  5.058000  -0.011000  0.000000
H  12.631000  -0.009000  0.000000
C  16.391568  10.553000  0.269890
C  16.391568  12.029000  0.160207
C  17.670751  12.724286  -0.027300
C  17.670751  8.371221  0.137628
C  17.670751  9.823667  0.223362
C  18.905140  10.553000  0.131351
C  18.905140  12.029000  0.004449
C  17.670751  4.000000  0.209063
C  17.670751  5.453610  0.127497
C  18.905140  6.197900  -0.058919
C  18.905140  7.631998  -0.068660
C  20.154752  8.371221  0.037510
C  20.154752  9.823667  0.118119
C  18.905140  3.272000  0.142044
C  20.154752  4.000000  0.134484
C  20.154752  5.453610  0.033570
C  21.411000  6.197900  0.268801
C  21.411000  7.631998  0.258643
C  17.670751  1.101000  -0.016713
C  18.905140  1.797813  0.021048
C  5.067250  5.453610  0.740546
C  5.067250  4.000000  0.617919
C  3.815571  3.272000  0.363178
C  3.815571  1.797813  0.204476
C  11.361143  3.272000  0.536384
C  2.546438  1.101000  0.139718
C  3.815571  7.631998  0.677870
C  3.815571  6.197900  0.664174
C  11.361143  7.631998  0.724035
C  2.546438  5.453610  0.449116
C  11.361143  6.197900  0.701914
C  2.546438  4.000000  0.314780
C  10.098375  5.453610  0.675701
C  16.391568  3.272000  0.218662
C  1.302141  3.272000  0.255911
C  10.098375  4.000000  0.512479
C  16.391568  1.797813  0.134004
C  1.302141  1.797813  0.148589
C  8.830644  3.272000  0.429896
C  15.145562  1.101000  0.118858
C  0.021251  1.101000  -0.030650
C  11.361143  12.029000  0.365494
C  2.546438  9.823667  0.354512
C  11.361143  10.553000  0.596634
C  2.546438  8.371221  0.476742
C  10.098375  9.823667  0.588499
C  16.391568  7.631998  0.363746
C  1.302141  7.631998  0.383661
C  10.098375  8.371221  0.723286
C  16.391568  6.197900  0.366577
C  1.302141  6.197900  0.374608
C  15.145562  5.453610  0.437274
C  0.021251  5.453610  0.136441
C  8.830644  7.631998  0.733805
C  8.830644  6.197900  0.722555
C  15.145562  4.000000  0.288398
C  0.021251  4.000000  0.216641
C  7.582124  5.453610  0.699141
C  13.876357  3.272000  0.336596
C  -1.214289  3.272000  0.094936
C  7.582124  4.000000  0.532803
C  13.876357  1.797813  0.194196
C  -1.214289  1.797813  -0.009228
C  10.098375  12.724286  0.200026
C  1.302141  10.553000  0.294304
C  8.830644  12.029000  0.290381
C  15.145562  9.823667  0.335476
C  0.021251  9.823667  0.230131
C  8.830644  10.553000  0.523464
C  15.145562  8.371221  0.463597
C  0.021251  8.371221  0.142417
C  7.582124  9.823667  0.586037
C  13.876357  7.631998  0.668563
C  -1.214289  7.631998  -0.080927
C  7.582124  8.371221  0.717575
C  13.876357  6.197900  0.642778
C  -1.214289  6.197900  -0.079569
C  6.330357  7.631998  0.718806
C  12.623562  5.453610  0.722072
C  -2.463372  5.453610  -0.014663
C  6.330357  6.197900  0.713851
C  12.623562  4.000000  0.595972
C  -2.463372  4.000000  0.070322
C  7.582124  12.724286  0.212862
C  13.876357  10.553000  0.385276
C  -1.214289  10.553000  0.110052
C  6.330357  12.029000  0.384335
C  12.623562  9.823667  0.646820
C  -2.463372  9.823667  0.061461
C  6.330357  10.553000  0.624555
C  12.623562  8.371221  0.771537
C  -2.463372  8.371221  -0.013796
C  5.067250  9.823667  0.681570
C  -3.721000  7.631998  0.166343
C  5.067250  8.371221  0.780101
C  -3.721000  6.197900  0.165608
C  5.067250  12.724286  0.269532
C  3.815571  12.029000  0.283252
C  3.815571  10.553000  0.419892
C  2.546438  12.724286  0.213326
C  1.302141  12.029000  0.194899
C  6.330357  3.272000  0.541238
C  15.145562  12.724286  0.149413
C  0.021251  12.724286  -0.021913
C  13.876357  12.029000  0.260922
C  -1.214289  12.029000  -0.013074
C  12.623562  12.724286  0.223639
C  6.330357  1.797813  0.277796
C  8.830644  1.797813  0.163421
C  11.361143  1.797813  0.265954
C  10.098375  1.101000  0.082880
C  7.582124  1.101000  0.067665
C  5.067250  1.101000  0.151424
C  12.623562  1.101000  0.130740
