142
frame	659
H  17.693000  13.826000  0.000000
H  19.858000  12.564000  0.000000
H  21.106000  10.363000  0.000000
H  22.366000  5.656000  0.000000
H  22.367000  8.165000  0.000000
H  19.852000  1.261000  0.000000
H  17.690000  -0.000000  0.000000
H  21.104000  3.459000  0.000000
H  2.530000  -0.005000  0.000000
H  15.160000  -0.002000  0.000000
H  0.000000  -0.000000  0.000000
H  -2.163000  1.262000  0.000000
H  -3.415000  3.463000  0.000000
H  -4.677000  8.168000  0.000000
H  -4.678000  5.662000  0.000000
H  -2.159000  12.565000  0.000000
H  10.109000  13.837000  0.000000
H  7.585000  13.838000  0.000000
H  5.062000  13.833000  0.000000
H  2.535000  13.828000  0.000000
H  15.163000  13.830000  0.000000
H  0.007000  13.825000  0.000000
H  -3.412000  10.366000  0.000000
H  12.635000  13.835000  0.000000
H  10.108000  -0.010000  0.000000
H  7.583000  -0.012000  0.000000
H  5.058000  -0.011000  0.000000
H  12.631000  -0.009000  0.000000
C  16.391568  10.553000  0.173955
C  16.391568  12.029000  0.093317
C  17.670751  12.724286  0.090690
C  17.670751  8.371221  0.453767
C  17.670751  9.823667  0.276994
C  18.905140  10.553000  0.247549
C  18.905140  12.029000  0.167862
C  17.670751  4.000000  0.292011
C  17.670751  5.453610  0.457643
C  18.905140  6.197900  0.581311
C  18.905140  7.631998  0.575720
C  20.154752  8.371221  0.468143
C  20.154752  9.823667  0.344136
C  18.905140  3.272000  0.279031
C  20.154752  4.000000  0.371413
C  20.154752  5.453610  0.464170
C  21.411000  6.197900  0.306630
C  21.411000  7.631998  0.304421
C  17.670751  1.101000  0.082276
C  18.905140  1.797813  0.178590
C  5.067250  5.453610  -0.062062
C  5.067250  4.000000  0.024138
C  3.815571  3.272000  0.227066
C  3.815571  1.797813  0.139207
C  11.361143  3.272000  -0.097933
C  2.546438  1.101000  0.028921
C  3.815571  7.631998  0.257215
C  3.815571  6.197900  0.245874
C  11.361143  7.631998  -0.149376
C  2.546438  5.453610  0.449676
C  11.361143  6.197900  -0.163682
C  2.546438  4.000000  0.344616
C  10.098375  5.453610  -0.118308
C  16.391568  3.272000  0.158277
C  1.302141  3.272000  0.150127
C  10.098375  4.000000  -0.159237
C  16.391568  1.797813  0.062569
C  1.302141  1.797813  0.071971
C  8.830644  3.272000  -0.139319
C  15.145562  1.101000  0.027053
C  0.021251  1.101000  0.091485
C  11.361143  12.029000  0.028034
C  2.546438  9.823667  0.383764
C  11.361143  10.553000  -0.036152
C  2.546438  8.371221  0.479524
C  10.098375  9.823667  -0.105755
C  16.391568  7.631998  0.463961
C  1.302141  7.631998  0.481766
C  10.098375  8.371221  -0.089420
C  16.391568  6.197900  0.474621
C  1.302141  6.197900  0.475713
C  15.145562  5.453610  0.452091
C  0.021251  5.453610  0.449630
C  8.830644  7.631998  -0.023751
C  8.830644  6.197900  -0.036124
C  15.145562  4.000000  0.339383
C  0.021251  4.000000  0.271181
C  7.582124  5.453610  -0.091242
C  13.876357  3.272000  0.212274
C  -1.214289  3.272000  0.218892
C  7.582124  4.000000  -0.145612
C  13.876357  1.797813  0.113998
C  -1.214289  1.797813  0.149442
C  10.098375  12.724286  0.083794
C  1.302141  10.553000  0.185149
C  8.830644  12.029000  0.023337
C  15.145562  9.823667  0.351707
C  0.021251  9.823667  0.275223
C  8.830644  10.553000  -0.057615
C  15.145562  8.371221  0.453945
C  0.021251  8.371221  0.451750
C  7.582124  9.823667  -0.087240
C  13.876357  7.631998  0.239849
C  -1.214289  7.631998  0.520934
C  7.582124  8.371221  -0.059461
C  13.876357  6.197900  0.238511
C  -1.214289  6.197900  0.519947
C  6.330357  7.631998  -0.144250
C  12.623562  5.453610  -0.080228
C  -2.463372  5.453610  0.394228
C  6.330357  6.197900  -0.144393
C  12.623562  4.000000  0.005622
C  -2.463372  4.000000  0.293204
C  7.582124  12.724286  0.096157
C  13.876357  10.553000  0.240899
C  -1.214289  10.553000  0.218426
C  6.330357  12.029000  0.060245
C  12.623562  9.823667  0.026308
C  -2.463372  9.823667  0.287918
C  6.330357  10.553000  -0.006326
C  12.623562  8.371221  -0.065728
C  -2.463372  8.371221  0.378907
C  5.067250  9.823667  0.075958
C  -3.721000  7.631998  0.179549
C  5.067250  8.371221  -0.029044
C  -3.721000  6.197900  0.177915
C  5.067250  12.724286  0.128567
C  3.815571  12.029000  0.227071
C  3.815571  10.553000  0.297621
C  2.546438  12.724286  0.114051
C  1.302141  12.029000  0.117924
C  6.330357  3.272000  -0.069051
C  15.145562  12.724286  0.063206
C  0.021251  12.724286  0.106929
C  13.876357  12.029000  0.179186
C  -1.214289  12.029000  0.157694
C  12.623562  12.724286  0.084192
C  6.330357  1.797813  -0.068871
C  8.830644  1.797813  -0.099542
C  11.361143  1.797813  -0.066467
C  10.098375  1.101000  -0.050223
C  7.582124  1.101000  -0.049847
C  5.067250  1.101000  0.001232
C  12.623562  1.101000  -0.021174
