142
frame	149
H  17.693000  13.826000  0.000000
H  19.858000  12.564000  0.000000
H  21.106000  10.363000  0.000000
H  22.366000  5.656000  0.000000
H  22.367000  8.165000  0.000000
H  19.852000  1.261000  0.000000
H  17.690000  -0.000000  0.000000
H  21.104000  3.459000  0.000000
H  2.530000  -0.005000  0.000000
H  15.160000  -0.002000  0.000000
H  0.000000  -0.000000  0.000000
H  -2.163000  1.262000  0.000000
H  -3.415000  3.463000  0.000000
H  -4.677000  8.168000  0.000000
H  -4.678000  5.662000  0.000000
H  -2.159000  12.565000  0.000000
H  10.109000  13.837000  0.000000
H  7.585000  13.838000  0.000000
H  5.062000  13.833000  0.000000
H  2.535000  13.828000  0.000000
H  15.163000  13.830000  0.000000
H  0.007000  13.825000  0.000000
H  -3.412000  10.366000  0.000000
H  12.635000  13.835000  0.000000
H  10.108000  -0.010000  0.000000
H  7.583000  -0.012000  0.000000
H  5.058000  -0.011000  0.000000
H  12.631000  -0.009000  0.000000
C  16.391568  10.553000  0.121016
C  16.391568  12.029000  0.180206
C  17.670751  12.724286  0.219462
C  17.670751  8.371221  0.220754
C  17.670751  9.823667  0.192478
C  18.905140  10.553000  0.169266
C  18.905140  12.029000  0.169792
C  17.670751  4.000000  0.196729
C  17.670751  5.453610  0.209475
C  18.905140  6.197900  0.271125
C  18.905140  7.631998  0.263954
C  20.154752  8.371221  0.149667
C  20.154752  9.823667  0.122838
C  18.905140  3.272000  0.183966
C  20.154752  4.000000  0.136894
C  20.154752  5.453610  0.162705
C  21.411000  6.197900  0.145348
C  21.411000  7.631998  0.144243
C  17.670751  1.101000  0.214338
C  18.905140  1.797813  0.197342
C  5.067250  5.453610  -0.390727
C  5.067250  4.000000  -0.338624
C  3.815571  3.272000  -0.214676
C  3.815571  1.797813  -0.239156
C  11.361143  3.272000  -0.521982
C  2.546438  1.101000  0.001549
C  3.815571  7.631998  -0.215963
C  3.815571  6.197900  -0.230421
C  11.361143  7.631998  -0.580398
C  2.546438  5.453610  -0.172437
C  11.361143  6.197900  -0.571984
C  2.546438  4.000000  -0.105807
C  10.098375  5.453610  -0.614151
C  16.391568  3.272000  0.105906
C  1.302141  3.272000  0.104842
C  10.098375  4.000000  -0.653490
C  16.391568  1.797813  0.153863
C  1.302141  1.797813  0.155950
C  8.830644  3.272000  -0.777483
C  15.145562  1.101000  -0.006229
C  0.021251  1.101000  0.216000
C  11.361143  12.029000  -0.389596
C  2.546438  9.823667  -0.074535
C  11.361143  10.553000  -0.441535
C  2.546438  8.371221  -0.146006
C  10.098375  9.823667  -0.594813
C  16.391568  7.631998  -0.025724
C  1.302141  7.631998  -0.033484
C  10.098375  8.371221  -0.594366
C  16.391568  6.197900  -0.038869
C  1.302141  6.197900  -0.035785
C  15.145562  5.453610  -0.171848
C  0.021251  5.453610  0.200217
C  8.830644  7.631998  -0.459467
C  8.830644  6.197900  -0.453387
C  15.145562  4.000000  -0.111115
C  0.021251  4.000000  0.183280
C  7.582124  5.453610  -0.605115
C  13.876357  3.272000  -0.218629
C  -1.214289  3.272000  0.161675
C  7.582124  4.000000  -0.653769
C  13.876357  1.797813  -0.238007
C  -1.214289  1.797813  0.189641
C  10.098375  12.724286  -0.230379
C  1.302141  10.553000  0.136843
C  8.830644  12.029000  -0.465521
C  15.145562  9.823667  -0.090103
C  0.021251  9.823667  0.200327
C  8.830644  10.553000  -0.692276
C  15.145562  8.371221  -0.181073
C  0.021251  8.371221  0.203606
C  7.582124  9.823667  -0.583941
C  13.876357  7.631998  -0.246495
C  -1.214289  7.631998  0.240315
C  7.582124  8.371221  -0.576615
C  13.876357  6.197900  -0.247864
C  -1.214289  6.197900  0.240111
C  6.330357  7.631998  -0.548190
C  12.623562  5.453610  -0.407609
C  -2.463372  5.453610  0.097195
C  6.330357  6.197900  -0.564901
C  12.623562  4.000000  -0.356440
C  -2.463372  4.000000  0.086048
C  7.582124  12.724286  -0.218948
C  13.876357  10.553000  -0.183721
C  -1.214289  10.553000  0.163905
C  6.330357  12.029000  -0.355055
C  12.623562  9.823667  -0.309031
C  -2.463372  9.823667  0.075162
C  6.330357  10.553000  -0.433090
C  12.623562  8.371221  -0.385938
C  -2.463372  8.371221  0.092758
C  5.067250  9.823667  -0.289253
C  -3.721000  7.631998  0.026895
C  5.067250  8.371221  -0.381378
C  -3.721000  6.197900  0.033792
C  5.067250  12.724286  -0.220528
C  3.815571  12.029000  -0.144387
C  3.815571  10.553000  -0.156906
C  2.546438  12.724286  0.084350
C  1.302141  12.029000  0.197050
C  6.330357  3.272000  -0.504673
C  15.145562  12.724286  0.045565
C  0.021251  12.724286  0.234707
C  13.876357  12.029000  -0.166074
C  -1.214289  12.029000  0.193530
C  12.623562  12.724286  -0.261884
C  6.330357  1.797813  -0.471307
C  8.830644  1.797813  -0.578506
C  11.361143  1.797813  -0.483781
C  10.098375  1.101000  -0.353644
C  7.582124  1.101000  -0.355358
C  5.067250  1.101000  -0.343765
C  12.623562  1.101000  -0.343086
