142
frame	576
H  17.693000  13.826000  0.000000
H  19.858000  12.564000  0.000000
H  21.106000  10.363000  0.000000
H  22.366000  5.656000  0.000000
H  22.367000  8.165000  0.000000
H  19.852000  1.261000  0.000000
H  17.690000  -0.000000  0.000000
H  21.104000  3.459000  0.000000
H  2.530000  -0.005000  0.000000
H  15.160000  -0.002000  0.000000
H  0.000000  -0.000000  0.000000
H  -2.163000  1.262000  0.000000
H  -3.415000  3.463000  0.000000
H  -4.677000  8.168000  0.000000
H  -4.678000  5.662000  0.000000
H  -2.159000  12.565000  0.000000
H  10.109000  13.837000  0.000000
H  7.585000  13.838000  0.000000
H  5.062000  13.833000  0.000000
H  2.535000  13.828000  0.000000
H  15.163000  13.830000  0.000000
H  0.007000  13.825000  0.000000
H  -3.412000  10.366000  0.000000
H  12.635000  13.835000  0.000000
H  10.108000  -0.010000  0.000000
H  7.583000  -0.012000  0.000000
H  5.058000  -0.011000  0.000000
H  12.631000  -0.009000  0.000000
C  16.391568  10.553000  0.011336
C  16.391568  12.029000  0.097742
C  17.670751  12.724286  0.097638
C  17.670751  8.371221  -0.025817
C  17.670751  9.823667  0.056617
C  18.905140  10.553000  0.166630
C  18.905140  12.029000  0.191445
C  17.670751  4.000000  0.055349
C  17.670751  5.453610  -0.028987
C  18.905140  6.197900  0.003302
C  18.905140  7.631998  0.000380
C  20.154752  8.371221  0.088124
C  20.154752  9.823667  0.198699
C  18.905140  3.272000  0.179543
C  20.154752  4.000000  0.207582
C  20.154752  5.453610  0.072033
C  21.411000  6.197900  0.119257
C  21.411000  7.631998  0.126998
C  17.670751  1.101000  0.103610
C  18.905140  1.797813  0.217124
C  5.067250  5.453610  0.143090
C  5.067250  4.000000  0.048217
C  3.815571  3.272000  -0.009896
C  3.815571  1.797813  -0.116490
C  11.361143  3.272000  -0.214915
C  2.546438  1.101000  -0.041248
C  3.815571  7.631998  0.259481
C  3.815571  6.197900  0.248742
C  11.361143  7.631998  -0.192829
C  2.546438  5.453610  0.096188
C  11.361143  6.197900  -0.213142
C  2.546438  4.000000  -0.029532
C  10.098375  5.453610  -0.351503
C  16.391568  3.272000  -0.007674
C  1.302141  3.272000  -0.035515
C  10.098375  4.000000  -0.410449
C  16.391568  1.797813  0.066575
C  1.302141  1.797813  0.068007
C  8.830644  3.272000  -0.379411
C  15.145562  1.101000  -0.030273
C  0.021251  1.101000  0.083772
C  11.361143  12.029000  -0.159509
C  2.546438  9.823667  -0.007752
C  11.361143  10.553000  -0.176317
C  2.546438  8.371221  0.121679
C  10.098375  9.823667  -0.361695
C  16.391568  7.631998  0.013965
C  1.302141  7.631998  0.001544
C  10.098375  8.371221  -0.306934
C  16.391568  6.197900  0.011737
C  1.302141  6.197900  0.008493
C  15.145562  5.453610  0.110886
C  0.021251  5.453610  -0.051255
C  8.830644  7.631998  -0.300682
C  8.830644  6.197900  -0.318824
C  15.145562  4.000000  -0.007983
C  0.021251  4.000000  0.023633
C  7.582124  5.453610  -0.353940
C  13.876357  3.272000  0.002690
C  -1.214289  3.272000  0.145323
C  7.582124  4.000000  -0.396656
C  13.876357  1.797813  -0.101588
C  -1.214289  1.797813  0.193845
C  10.098375  12.724286  -0.048157
C  1.302141  10.553000  -0.005288
C  8.830644  12.029000  -0.134863
C  15.145562  9.823667  0.008750
C  0.021251  9.823667  0.039623
C  8.830644  10.553000  -0.319963
C  15.145562  8.371221  0.123467
C  0.021251  8.371221  -0.061543
C  7.582124  9.823667  -0.343169
C  13.876357  7.631998  0.260990
C  -1.214289  7.631998  -0.036947
C  7.582124  8.371221  -0.326308
C  13.876357  6.197900  0.253725
C  -1.214289  6.197900  -0.035630
C  6.330357  7.631998  -0.192293
C  12.623562  5.453610  0.143658
C  -2.463372  5.453610  0.030726
C  6.330357  6.197900  -0.204640
C  12.623562  4.000000  0.055050
C  -2.463372  4.000000  0.137456
C  7.582124  12.724286  -0.042900
C  13.876357  10.553000  0.029039
C  -1.214289  10.553000  0.159750
C  6.330357  12.029000  -0.147144
C  12.623562  9.823667  0.074221
C  -2.463372  9.823667  0.141448
C  6.330357  10.553000  -0.137134
C  12.623562  8.371221  0.159001
C  -2.463372  8.371221  0.015117
C  5.067250  9.823667  0.078049
C  -3.721000  7.631998  0.031152
C  5.067250  8.371221  0.170631
C  -3.721000  6.197900  0.034138
C  5.067250  12.724286  -0.126787
C  3.815571  12.029000  -0.038568
C  3.815571  10.553000  0.023641
C  2.546438  12.724286  0.036459
C  1.302141  12.029000  0.115997
C  6.330357  3.272000  -0.198711
C  15.145562  12.724286  0.012782
C  0.021251  12.724286  0.117039
C  13.876357  12.029000  -0.050514
C  -1.214289  12.029000  0.196694
C  12.623562  12.724286  -0.143748
C  6.330357  1.797813  -0.244950
C  8.830644  1.797813  -0.234198
C  11.361143  1.797813  -0.246871
C  10.098375  1.101000  -0.165272
C  7.582124  1.101000  -0.167062
C  5.067250  1.101000  -0.234720
C  12.623562  1.101000  -0.239257
