142
frame	375
H  17.693000  13.826000  0.000000
H  19.858000  12.564000  0.000000
H  21.106000  10.363000  0.000000
H  22.366000  5.656000  0.000000
H  22.367000  8.165000  0.000000
H  19.852000  1.261000  0.000000
H  17.690000  -0.000000  0.000000
H  21.104000  3.459000  0.000000
H  2.530000  -0.005000  0.000000
H  15.160000  -0.002000  0.000000
H  0.000000  -0.000000  0.000000
H  -2.163000  1.262000  0.000000
H  -3.415000  3.463000  0.000000
H  -4.677000  8.168000  0.000000
H  -4.678000  5.662000  0.000000
H  -2.159000  12.565000  0.000000
H  10.109000  13.837000  0.000000
H  7.585000  13.838000  0.000000
H  5.062000  13.833000  0.000000
H  2.535000  13.828000  0.000000
H  15.163000  13.830000  0.000000
H  0.007000  13.825000  0.000000
H  -3.412000  10.366000  0.000000
H  12.635000  13.835000  0.000000
H  10.108000  -0.010000  0.000000
H  7.583000  -0.012000  0.000000
H  5.058000  -0.011000  0.000000
H  12.631000  -0.009000  0.000000
C  16.391568  10.553000  -0.361063
C  16.391568  12.029000  -0.301262
C  17.670751  12.724286  -0.216287
C  17.670751  8.371221  -0.528100
C  17.670751  9.823667  -0.427629
C  18.905140  10.553000  -0.282344
C  18.905140  12.029000  -0.187800
C  17.670751  4.000000  -0.423753
C  17.670751  5.453610  -0.545570
C  18.905140  6.197900  -0.535289
C  18.905140  7.631998  -0.512114
C  20.154752  8.371221  -0.272299
C  20.154752  9.823667  -0.107991
C  18.905140  3.272000  -0.286083
C  20.154752  4.000000  -0.087028
C  20.154752  5.453610  -0.265817
C  21.411000  6.197900  -0.075826
C  21.411000  7.631998  -0.084929
C  17.670751  1.101000  -0.225350
C  18.905140  1.797813  -0.176462
C  5.067250  5.453610  -0.639203
C  5.067250  4.000000  -0.634577
C  3.815571  3.272000  -0.398750
C  3.815571  1.797813  -0.182300
C  11.361143  3.272000  -0.528370
C  2.546438  1.101000  -0.232615
C  3.815571  7.631998  -0.540067
C  3.815571  6.197900  -0.549643
C  11.361143  7.631998  -0.342100
C  2.546438  5.453610  -0.537897
C  11.361143  6.197900  -0.351174
C  2.546438  4.000000  -0.402725
C  10.098375  5.453610  -0.244337
C  16.391568  3.272000  -0.379317
C  1.302141  3.272000  -0.437950
C  10.098375  4.000000  -0.402942
C  16.391568  1.797813  -0.317511
C  1.302141  1.797813  -0.349523
C  8.830644  3.272000  -0.424727
C  15.145562  1.101000  -0.198800
C  0.021251  1.101000  -0.231305
C  11.361143  12.029000  -0.202466
C  2.546438  9.823667  -0.362885
C  11.361143  10.553000  -0.444927
C  2.546438  8.371221  -0.507621
C  10.098375  9.823667  -0.328670
C  16.391568  7.631998  -0.542502
C  1.302141  7.631998  -0.595176
C  10.098375  8.371221  -0.225697
C  16.391568  6.197900  -0.545511
C  1.302141  6.197900  -0.612436
C  15.145562  5.453610  -0.497101
C  0.021251  5.453610  -0.626694
C  8.830644  7.631998  -0.089307
C  8.830644  6.197900  -0.095423
C  15.145562  4.000000  -0.356894
C  0.021251  4.000000  -0.507406
C  7.582124  5.453610  -0.255390
C  13.876357  3.272000  -0.385195
C  -1.214289  3.272000  -0.338762
C  7.582124  4.000000  -0.403808
C  13.876357  1.797813  -0.162287
C  -1.214289  1.797813  -0.220665
C  10.098375  12.724286  -0.217518
C  1.302141  10.553000  -0.406794
C  8.830644  12.029000  -0.419212
C  15.145562  9.823667  -0.334003
C  0.021251  9.823667  -0.483182
C  8.830644  10.553000  -0.320921
C  15.145562  8.371221  -0.487805
C  0.021251  8.371221  -0.618064
C  7.582124  9.823667  -0.331441
C  13.876357  7.631998  -0.519979
C  -1.214289  7.631998  -0.592190
C  7.582124  8.371221  -0.234953
C  13.876357  6.197900  -0.517416
C  -1.214289  6.197900  -0.589412
C  6.330357  7.631998  -0.361880
C  12.623562  5.453610  -0.614955
C  -2.463372  5.453610  -0.365140
C  6.330357  6.197900  -0.369862
C  12.623562  4.000000  -0.629309
C  -2.463372  4.000000  -0.178227
C  7.582124  12.724286  -0.184976
C  13.876357  10.553000  -0.320686
C  -1.214289  10.553000  -0.339783
C  6.330357  12.029000  -0.170889
C  12.623562  9.823667  -0.573046
C  -2.463372  9.823667  -0.176077
C  6.330357  10.553000  -0.440053
C  12.623562  8.371221  -0.601252
C  -2.463372  8.371221  -0.369763
C  5.067250  9.823667  -0.581846
C  -3.721000  7.631998  -0.196567
C  5.067250  8.371221  -0.611618
C  -3.721000  6.197900  -0.197309
C  5.067250  12.724286  0.083237
C  3.815571  12.029000  -0.100916
C  3.815571  10.553000  -0.327228
C  2.546438  12.724286  -0.143344
C  1.302141  12.029000  -0.310066
C  6.330357  3.272000  -0.533562
C  15.145562  12.724286  -0.160788
C  0.021251  12.724286  -0.221082
C  13.876357  12.029000  -0.094783
C  -1.214289  12.029000  -0.216956
C  12.623562  12.724286  0.052981
C  6.330357  1.797813  -0.290886
C  8.830644  1.797813  -0.561134
C  11.361143  1.797813  -0.300422
C  10.098375  1.101000  -0.350936
C  7.582124  1.101000  -0.337096
C  5.067250  1.101000  -0.033888
C  12.623562  1.101000  -0.040287
