142
frame	121
H  17.693000  13.826000  0.000000
H  19.858000  12.564000  0.000000
H  21.106000  10.363000  0.000000
H  22.366000  5.656000  0.000000
H  22.367000  8.165000  0.000000
H  19.852000  1.261000  0.000000
H  17.690000  -0.000000  0.000000
H  21.104000  3.459000  0.000000
H  2.530000  -0.005000  0.000000
H  15.160000  -0.002000  0.000000
H  0.000000  -0.000000  0.000000
H  -2.163000  1.262000  0.000000
H  -3.415000  3.463000  0.000000
H  -4.677000  8.168000  0.000000
H  -4.678000  5.662000  0.000000
H  -2.159000  12.565000  0.000000
H  10.109000  13.837000  0.000000
H  7.585000  13.838000  0.000000
H  5.062000  13.833000  0.000000
H  2.535000  13.828000  0.000000
H  15.163000  13.830000  0.000000
H  0.007000  13.825000  0.000000
H  -3.412000  10.366000  0.000000
H  12.635000  13.835000  0.000000
H  10.108000  -0.010000  0.000000
H  7.583000  -0.012000  0.000000
H  5.058000  -0.011000  0.000000
H  12.631000  -0.009000  0.000000
C  16.391568  10.553000  0.216762
C  16.391568  12.029000  0.164647
C  17.670751  12.724286  -0.060186
C  17.670751  8.371221  0.212306
C  17.670751  9.823667  0.179198
C  18.905140  10.553000  -0.011255
C  18.905140  12.029000  -0.113795
C  17.670751  4.000000  0.169635
C  17.670751  5.453610  0.211302
C  18.905140  6.197900  0.122162
C  18.905140  7.631998  0.124244
C  20.154752  8.371221  0.082672
C  20.154752  9.823667  0.018211
C  18.905140  3.272000  0.000577
C  20.154752  4.000000  0.036267
C  20.154752  5.453610  0.089330
C  21.411000  6.197900  0.177256
C  21.411000  7.631998  0.169317
C  17.670751  1.101000  -0.049198
C  18.905140  1.797813  -0.099884
C  5.067250  5.453610  -0.366766
C  5.067250  4.000000  -0.315386
C  3.815571  3.272000  -0.082121
C  3.815571  1.797813  0.053853
C  11.361143  3.272000  -0.384309
C  2.546438  1.101000  0.146142
C  3.815571  7.631998  -0.279948
C  3.815571  6.197900  -0.287076
C  11.361143  7.631998  -0.492214
C  2.546438  5.453610  -0.027225
C  11.361143  6.197900  -0.514409
C  2.546438  4.000000  0.030317
C  10.098375  5.453610  -0.561552
C  16.391568  3.272000  0.194883
C  1.302141  3.272000  0.211428
C  10.098375  4.000000  -0.512720
C  16.391568  1.797813  0.152391
C  1.302141  1.797813  0.165298
C  8.830644  3.272000  -0.409524
C  15.145562  1.101000  0.133034
C  0.021251  1.101000  -0.056338
C  11.361143  12.029000  -0.256645
C  2.546438  9.823667  0.069955
C  11.361143  10.553000  -0.334478
C  2.546438  8.371221  -0.012886
C  10.098375  9.823667  -0.453629
C  16.391568  7.631998  0.184625
C  1.302141  7.631998  0.206107
C  10.098375  8.371221  -0.539324
C  16.391568  6.197900  0.190485
C  1.302141  6.197900  0.197103
C  15.145562  5.453610  -0.043554
C  0.021251  5.453610  0.214544
C  8.830644  7.631998  -0.705110
C  8.830644  6.197900  -0.731915
C  15.145562  4.000000  0.025000
C  0.021251  4.000000  0.177041
C  7.582124  5.453610  -0.551420
C  13.876357  3.272000  -0.095531
C  -1.214289  3.272000  -0.028643
C  7.582124  4.000000  -0.498485
C  13.876357  1.797813  0.037755
C  -1.214289  1.797813  -0.127765
C  10.098375  12.724286  -0.294690
C  1.302141  10.553000  0.240508
C  8.830644  12.029000  -0.385864
C  15.145562  9.823667  0.041581
C  0.021251  9.823667  0.189443
C  8.830644  10.553000  -0.340121
C  15.145562  8.371221  -0.024415
C  0.021251  8.371221  0.222623
C  7.582124  9.823667  -0.443119
C  13.876357  7.631998  -0.289795
C  -1.214289  7.631998  0.094637
C  7.582124  8.371221  -0.539066
C  13.876357  6.197900  -0.309757
C  -1.214289  6.197900  0.095647
C  6.330357  7.631998  -0.478398
C  12.623562  5.453610  -0.382561
C  -2.463372  5.453610  0.020587
C  6.330357  6.197900  -0.493483
C  12.623562  4.000000  -0.332250
C  -2.463372  4.000000  -0.031179
C  7.582124  12.724286  -0.272579
C  13.876357  10.553000  -0.058434
C  -1.214289  10.553000  -0.022883
C  6.330357  12.029000  -0.245984
C  12.623562  9.823667  -0.292392
C  -2.463372  9.823667  -0.035413
C  6.330357  10.553000  -0.308460
C  12.623562  8.371221  -0.379777
C  -2.463372  8.371221  0.017485
C  5.067250  9.823667  -0.263664
C  -3.721000  7.631998  0.059773
C  5.067250  8.371221  -0.334151
C  -3.721000  6.197900  0.061968
C  5.067250  12.724286  0.032905
C  3.815571  12.029000  0.128942
C  3.815571  10.553000  -0.021167
C  2.546438  12.724286  0.209957
C  1.302141  12.029000  0.210561
C  6.330357  3.272000  -0.376229
C  15.145562  12.724286  0.180070
C  0.021251  12.724286  -0.021204
C  13.876357  12.029000  0.099113
C  -1.214289  12.029000  -0.117710
C  12.623562  12.724286  0.000676
C  6.330357  1.797813  -0.361161
C  8.830644  1.797813  -0.514152
C  11.361143  1.797813  -0.366046
C  10.098375  1.101000  -0.429602
C  7.582124  1.101000  -0.421395
C  5.067250  1.101000  -0.086002
C  12.623562  1.101000  -0.106457
