142
frame	449
H  17.693000  13.826000  0.000000
H  19.858000  12.564000  0.000000
H  21.106000  10.363000  0.000000
H  22.366000  5.656000  0.000000
H  22.367000  8.165000  0.000000
H  19.852000  1.261000  0.000000
H  17.690000  -0.000000  0.000000
H  21.104000  3.459000  0.000000
H  2.530000  -0.005000  0.000000
H  15.160000  -0.002000  0.000000
H  0.000000  -0.000000  0.000000
H  -2.163000  1.262000  0.000000
H  -3.415000  3.463000  0.000000
H  -4.677000  8.168000  0.000000
H  -4.678000  5.662000  0.000000
H  -2.159000  12.565000  0.000000
H  10.109000  13.837000  0.000000
H  7.585000  13.838000  0.000000
H  5.062000  13.833000  0.000000
H  2.535000  13.828000  0.000000
H  15.163000  13.830000  0.000000
H  0.007000  13.825000  0.000000
H  -3.412000  10.366000  0.000000
H  12.635000  13.835000  0.000000
H  10.108000  -0.010000  0.000000
H  7.583000  -0.012000  0.000000
H  5.058000  -0.011000  0.000000
H  12.631000  -0.009000  0.000000
C  16.391568  10.553000  -0.435855
C  16.391568  12.029000  -0.405458
C  17.670751  12.724286  -0.187804
C  17.670751  8.371221  -0.490472
C  17.670751  9.823667  -0.335384
C  18.905140  10.553000  -0.088003
C  18.905140  12.029000  -0.048581
C  17.670751  4.000000  -0.338151
C  17.670751  5.453610  -0.507336
C  18.905140  6.197900  -0.172775
C  18.905140  7.631998  -0.175598
C  20.154752  8.371221  0.124105
C  20.154752  9.823667  0.114052
C  18.905140  3.272000  -0.073215
C  20.154752  4.000000  0.135449
C  20.154752  5.453610  0.124106
C  21.411000  6.197900  0.258204
C  21.411000  7.631998  0.247846
C  17.670751  1.101000  -0.200885
C  18.905140  1.797813  -0.043162
C  5.067250  5.453610  -0.376756
C  5.067250  4.000000  -0.524910
C  3.815571  3.272000  -0.600113
C  3.815571  1.797813  -0.415490
C  11.361143  3.272000  -0.166725
C  2.546438  1.101000  -0.400756
C  3.815571  7.631998  -0.448014
C  3.815571  6.197900  -0.452023
C  11.361143  7.631998  -0.267228
C  2.546438  5.453610  -0.540376
C  11.361143  6.197900  -0.275819
C  2.546438  4.000000  -0.547716
C  10.098375  5.453610  -0.265157
C  16.391568  3.272000  -0.448197
C  1.302141  3.272000  -0.469793
C  10.098375  4.000000  -0.140257
C  16.391568  1.797813  -0.410322
C  1.302141  1.797813  -0.440443
C  8.830644  3.272000  0.074559
C  15.145562  1.101000  -0.399303
C  0.021251  1.101000  -0.203486
C  11.361143  12.029000  0.088393
C  2.546438  9.823667  -0.522711
C  11.361143  10.553000  -0.107268
C  2.546438  8.371221  -0.526181
C  10.098375  9.823667  -0.069481
C  16.391568  7.631998  -0.621515
C  1.302141  7.631998  -0.697657
C  10.098375  8.371221  -0.243984
C  16.391568  6.197900  -0.629566
C  1.302141  6.197900  -0.692682
C  15.145562  5.453610  -0.486534
C  0.021251  5.453610  -0.561312
C  8.830644  7.631998  -0.459545
C  8.830644  6.197900  -0.483395
C  15.145562  4.000000  -0.533767
C  0.021251  4.000000  -0.379711
C  7.582124  5.453610  -0.270757
C  13.876357  3.272000  -0.592065
C  -1.214289  3.272000  -0.130747
C  7.582124  4.000000  -0.165152
C  13.876357  1.797813  -0.411376
C  -1.214289  1.797813  -0.050245
C  10.098375  12.724286  0.127947
C  1.302141  10.553000  -0.443198
C  8.830644  12.029000  0.213463
C  15.145562  9.823667  -0.501300
C  0.021251  9.823667  -0.378022
C  8.830644  10.553000  0.160039
C  15.145562  8.371221  -0.482811
C  0.021251  8.371221  -0.559008
C  7.582124  9.823667  -0.081437
C  13.876357  7.631998  -0.401231
C  -1.214289  7.631998  -0.247560
C  7.582124  8.371221  -0.238901
C  13.876357  6.197900  -0.405392
C  -1.214289  6.197900  -0.256748
C  6.330357  7.631998  -0.262348
C  12.623562  5.453610  -0.353703
C  -2.463372  5.453610  0.041744
C  6.330357  6.197900  -0.280334
C  12.623562  4.000000  -0.509040
C  -2.463372  4.000000  0.065294
C  7.582124  12.724286  0.145248
C  13.876357  10.553000  -0.532974
C  -1.214289  10.553000  -0.131468
C  6.330357  12.029000  0.092465
C  12.623562  9.823667  -0.445862
C  -2.463372  9.823667  0.053742
C  6.330357  10.553000  -0.111820
C  12.623562  8.371221  -0.335533
C  -2.463372  8.371221  0.029811
C  5.067250  9.823667  -0.475456
C  -3.721000  7.631998  0.109797
C  5.067250  8.371221  -0.352668
C  -3.721000  6.197900  0.114958
C  5.067250  12.724286  0.056196
C  3.815571  12.029000  -0.332289
C  3.815571  10.553000  -0.554750
C  2.546438  12.724286  -0.319326
C  1.302141  12.029000  -0.394425
C  6.330357  3.272000  -0.183917
C  15.145562  12.724286  -0.358220
C  0.021251  12.724286  -0.184378
C  13.876357  12.029000  -0.339877
C  -1.214289  12.029000  -0.047743
C  12.623562  12.724286  0.035239
C  6.330357  1.797813  -0.003198
C  8.830644  1.797813  0.105545
C  11.361143  1.797813  -0.005397
C  10.098375  1.101000  0.026681
C  7.582124  1.101000  0.016881
C  5.067250  1.101000  -0.042235
C  12.623562  1.101000  -0.049078
