142
frame	399
H  17.693000  13.826000  0.000000
H  19.858000  12.564000  0.000000
H  21.106000  10.363000  0.000000
H  22.366000  5.656000  0.000000
H  22.367000  8.165000  0.000000
H  19.852000  1.261000  0.000000
H  17.690000  -0.000000  0.000000
H  21.104000  3.459000  0.000000
H  2.530000  -0.005000  0.000000
H  15.160000  -0.002000  0.000000
H  0.000000  -0.000000  0.000000
H  -2.163000  1.262000  0.000000
H  -3.415000  3.463000  0.000000
H  -4.677000  8.168000  0.000000
H  -4.678000  5.662000  0.000000
H  -2.159000  12.565000  0.000000
H  10.109000  13.837000  0.000000
H  7.585000  13.838000  0.000000
H  5.062000  13.833000  0.000000
H  2.535000  13.828000  0.000000
H  15.163000  13.830000  0.000000
H  0.007000  13.825000  0.000000
H  -3.412000  10.366000  0.000000
H  12.635000  13.835000  0.000000
H  10.108000  -0.010000  0.000000
H  7.583000  -0.012000  0.000000
H  5.058000  -0.011000  0.000000
H  12.631000  -0.009000  0.000000
C  16.391568  10.553000  -0.548917
C  16.391568  12.029000  -0.346186
C  17.670751  12.724286  -0.139788
C  17.670751  8.371221  -0.486981
C  17.670751  9.823667  -0.584148
C  18.905140  10.553000  -0.327982
C  18.905140  12.029000  -0.087839
C  17.670751  4.000000  -0.595939
C  17.670751  5.453610  -0.484102
C  18.905140  6.197900  -0.254615
C  18.905140  7.631998  -0.272482
C  20.154752  8.371221  -0.177951
C  20.154752  9.823667  -0.161626
C  18.905140  3.272000  -0.313039
C  20.154752  4.000000  -0.146066
C  20.154752  5.453610  -0.176380
C  21.411000  6.197900  -0.002214
C  21.411000  7.631998  -0.006507
C  17.670751  1.101000  -0.152412
C  18.905140  1.797813  -0.084316
C  5.067250  5.453610  -0.426674
C  5.067250  4.000000  -0.381528
C  3.815571  3.272000  -0.428095
C  3.815571  1.797813  -0.323245
C  11.361143  3.272000  -0.357616
C  2.546438  1.101000  -0.214870
C  3.815571  7.631998  -0.644340
C  3.815571  6.197900  -0.656931
C  11.361143  7.631998  -0.296684
C  2.546438  5.453610  -0.575888
C  11.361143  6.197900  -0.313852
C  2.546438  4.000000  -0.566857
C  10.098375  5.453610  -0.260612
C  16.391568  3.272000  -0.569042
C  1.302141  3.272000  -0.617558
C  10.098375  4.000000  -0.346982
C  16.391568  1.797813  -0.376859
C  1.302141  1.797813  -0.402700
C  8.830644  3.272000  -0.302473
C  15.145562  1.101000  -0.223004
C  0.021251  1.101000  -0.176370
C  11.361143  12.029000  -0.250903
C  2.546438  9.823667  -0.527108
C  11.361143  10.553000  -0.282693
C  2.546438  8.371221  -0.563328
C  10.098375  9.823667  -0.274602
C  16.391568  7.631998  -0.494678
C  1.302141  7.631998  -0.551702
C  10.098375  8.371221  -0.226825
C  16.391568  6.197900  -0.495752
C  1.302141  6.197900  -0.549914
C  15.145562  5.453610  -0.521202
C  0.021251  5.453610  -0.554573
C  8.830644  7.631998  -0.284463
C  8.830644  6.197900  -0.305651
C  15.145562  4.000000  -0.523847
C  0.021251  4.000000  -0.660522
C  7.582124  5.453610  -0.260552
C  13.876357  3.272000  -0.384035
C  -1.214289  3.272000  -0.395221
C  7.582124  4.000000  -0.332597
C  13.876357  1.797813  -0.302042
C  -1.214289  1.797813  -0.114344
C  10.098375  12.724286  -0.115730
C  1.302141  10.553000  -0.588249
C  8.830644  12.029000  -0.064236
C  15.145562  9.823667  -0.495657
C  0.021251  9.823667  -0.655135
C  8.830644  10.553000  -0.218583
C  15.145562  8.371221  -0.521622
C  0.021251  8.371221  -0.538064
C  7.582124  9.823667  -0.273554
C  13.876357  7.631998  -0.610859
C  -1.214289  7.631998  -0.344499
C  7.582124  8.371221  -0.240842
C  13.876357  6.197900  -0.623014
C  -1.214289  6.197900  -0.357835
C  6.330357  7.631998  -0.315704
C  12.623562  5.453610  -0.406226
C  -2.463372  5.453610  -0.260180
C  6.330357  6.197900  -0.328888
C  12.623562  4.000000  -0.364984
C  -2.463372  4.000000  -0.222520
C  7.582124  12.724286  -0.099471
C  13.876357  10.553000  -0.347372
C  -1.214289  10.553000  -0.388004
C  6.330357  12.029000  -0.232454
C  12.623562  9.823667  -0.311988
C  -2.463372  9.823667  -0.241791
C  6.330357  10.553000  -0.265826
C  12.623562  8.371221  -0.383010
C  -2.463372  8.371221  -0.263523
C  5.067250  9.823667  -0.310193
C  -3.721000  7.631998  -0.131582
C  5.067250  8.371221  -0.402520
C  -3.721000  6.197900  -0.124389
C  5.067250  12.724286  -0.182741
C  3.815571  12.029000  -0.229579
C  3.815571  10.553000  -0.365410
C  2.546438  12.724286  -0.159231
C  1.302141  12.029000  -0.363102
C  6.330357  3.272000  -0.334760
C  15.145562  12.724286  -0.174056
C  0.021251  12.724286  -0.138453
C  13.876357  12.029000  -0.241167
C  -1.214289  12.029000  -0.104337
C  12.623562  12.724286  -0.203954
C  6.330357  1.797813  -0.355561
C  8.830644  1.797813  -0.200323
C  11.361143  1.797813  -0.369855
C  10.098375  1.101000  -0.260452
C  7.582124  1.101000  -0.255440
C  5.067250  1.101000  -0.302631
C  12.623562  1.101000  -0.296758
