142
frame	655
H  17.693000  13.826000  0.000000
H  19.858000  12.564000  0.000000
H  21.106000  10.363000  0.000000
H  22.366000  5.656000  0.000000
H  22.367000  8.165000  0.000000
H  19.852000  1.261000  0.000000
H  17.690000  -0.000000  0.000000
H  21.104000  3.459000  0.000000
H  2.530000  -0.005000  0.000000
H  15.160000  -0.002000  0.000000
H  0.000000  -0.000000  0.000000
H  -2.163000  1.262000  0.000000
H  -3.415000  3.463000  0.000000
H  -4.677000  8.168000  0.000000
H  -4.678000  5.662000  0.000000
H  -2.159000  12.565000  0.000000
H  10.109000  13.837000  0.000000
H  7.585000  13.838000  0.000000
H  5.062000  13.833000  0.000000
H  2.535000  13.828000  0.000000
H  15.163000  13.830000  0.000000
H  0.007000  13.825000  0.000000
H  -3.412000  10.366000  0.000000
H  12.635000  13.835000  0.000000
H  10.108000  -0.010000  0.000000
H  7.583000  -0.012000  0.000000
H  5.058000  -0.011000  0.000000
H  12.631000  -0.009000  0.000000
C  16.391568  10.553000  0.141802
C  16.391568  12.029000  0.063190
C  17.670751  12.724286  0.043625
C  17.670751  8.371221  0.459342
C  17.670751  9.823667  0.264789
C  18.905140  10.553000  0.240620
C  18.905140  12.029000  0.109899
C  17.670751  4.000000  0.276889
C  17.670751  5.453610  0.465353
C  18.905140  6.197900  0.535573
C  18.905140  7.631998  0.523810
C  20.154752  8.371221  0.440596
C  20.154752  9.823667  0.332123
C  18.905140  3.272000  0.270996
C  20.154752  4.000000  0.356096
C  20.154752  5.453610  0.436302
C  21.411000  6.197900  0.310331
C  21.411000  7.631998  0.306170
C  17.670751  1.101000  0.035094
C  18.905140  1.797813  0.122020
C  5.067250  5.453610  -0.071193
C  5.067250  4.000000  0.025165
C  3.815571  3.272000  0.248219
C  3.815571  1.797813  0.146480
C  11.361143  3.272000  -0.095144
C  2.546438  1.101000  0.052589
C  3.815571  7.631998  0.280349
C  3.815571  6.197900  0.265440
C  11.361143  7.631998  -0.193517
C  2.546438  5.453610  0.436847
C  11.361143  6.197900  -0.212353
C  2.546438  4.000000  0.320024
C  10.098375  5.453610  -0.122714
C  16.391568  3.272000  0.127871
C  1.302141  3.272000  0.119414
C  10.098375  4.000000  -0.201072
C  16.391568  1.797813  0.030814
C  1.302141  1.797813  0.038991
C  8.830644  3.272000  -0.163383
C  15.145562  1.101000  0.048621
C  0.021251  1.101000  0.041402
C  11.361143  12.029000  0.006614
C  2.546438  9.823667  0.356945
C  11.361143  10.553000  -0.036885
C  2.546438  8.371221  0.468500
C  10.098375  9.823667  -0.148743
C  16.391568  7.631998  0.497444
C  1.302141  7.631998  0.514863
C  10.098375  8.371221  -0.096040
C  16.391568  6.197900  0.513585
C  1.302141  6.197900  0.504859
C  15.145562  5.453610  0.441843
C  0.021251  5.453610  0.457047
C  8.830644  7.631998  0.020447
C  8.830644  6.197900  0.006980
C  15.145562  4.000000  0.314429
C  0.021251  4.000000  0.258758
C  7.582124  5.453610  -0.092619
C  13.876357  3.272000  0.239628
C  -1.214289  3.272000  0.210623
C  7.582124  4.000000  -0.191814
C  13.876357  1.797813  0.120793
C  -1.214289  1.797813  0.092138
C  10.098375  12.724286  0.102587
C  1.302141  10.553000  0.158347
C  8.830644  12.029000  0.007439
C  15.145562  9.823667  0.333234
C  0.021251  9.823667  0.263410
C  8.830644  10.553000  -0.086644
C  15.145562  8.371221  0.446750
C  0.021251  8.371221  0.460105
C  7.582124  9.823667  -0.134501
C  13.876357  7.631998  0.264382
C  -1.214289  7.631998  0.473765
C  7.582124  8.371221  -0.062690
C  13.876357  6.197900  0.257414
C  -1.214289  6.197900  0.479734
C  6.330357  7.631998  -0.194281
C  12.623562  5.453610  -0.089962
C  -2.463372  5.453610  0.361704
C  6.330357  6.197900  -0.192420
C  12.623562  4.000000  0.003166
C  -2.463372  4.000000  0.278201
C  7.582124  12.724286  0.106776
C  13.876357  10.553000  0.260703
C  -1.214289  10.553000  0.210508
C  6.330357  12.029000  0.040724
C  12.623562  9.823667  0.026315
C  -2.463372  9.823667  0.276187
C  6.330357  10.553000  -0.011080
C  12.623562  8.371221  -0.074392
C  -2.463372  8.371221  0.352800
C  5.067250  9.823667  0.080426
C  -3.721000  7.631998  0.185852
C  5.067250  8.371221  -0.039205
C  -3.721000  6.197900  0.186353
C  5.067250  12.724286  0.125887
C  3.815571  12.029000  0.231153
C  3.815571  10.553000  0.313137
C  2.546438  12.724286  0.138632
C  1.302141  12.029000  0.085594
C  6.330357  3.272000  -0.071507
C  15.145562  12.724286  0.081589
C  0.021251  12.724286  0.053190
C  13.876357  12.029000  0.183882
C  -1.214289  12.029000  0.097224
C  12.623562  12.724286  0.083280
C  6.330357  1.797813  -0.089493
C  8.830644  1.797813  -0.117541
C  11.361143  1.797813  -0.088017
C  10.098375  1.101000  -0.033642
C  7.582124  1.101000  -0.037511
C  5.067250  1.101000  -0.002017
C  12.623562  1.101000  -0.025951
