142
frame	81
H  17.693000  13.826000  0.000000
H  19.858000  12.564000  0.000000
H  21.106000  10.363000  0.000000
H  22.366000  5.656000  0.000000
H  22.367000  8.165000  0.000000
H  19.852000  1.261000  0.000000
H  17.690000  -0.000000  0.000000
H  21.104000  3.459000  0.000000
H  2.530000  -0.005000  0.000000
H  15.160000  -0.002000  0.000000
H  0.000000  -0.000000  0.000000
H  -2.163000  1.262000  0.000000
H  -3.415000  3.463000  0.000000
H  -4.677000  8.168000  0.000000
H  -4.678000  5.662000  0.000000
H  -2.159000  12.565000  0.000000
H  10.109000  13.837000  0.000000
H  7.585000  13.838000  0.000000
H  5.062000  13.833000  0.000000
H  2.535000  13.828000  0.000000
H  15.163000  13.830000  0.000000
H  0.007000  13.825000  0.000000
H  -3.412000  10.366000  0.000000
H  12.635000  13.835000  0.000000
H  10.108000  -0.010000  0.000000
H  7.583000  -0.012000  0.000000
H  5.058000  -0.011000  0.000000
H  12.631000  -0.009000  0.000000
C  16.391568  10.553000  -0.037284
C  16.391568  12.029000  -0.035968
C  17.670751  12.724286  0.034985
C  17.670751  8.371221  0.013716
C  17.670751  9.823667  0.008366
C  18.905140  10.553000  0.090345
C  18.905140  12.029000  0.074339
C  17.670751  4.000000  0.004513
C  17.670751  5.453610  0.017353
C  18.905140  6.197900  0.078492
C  18.905140  7.631998  0.076613
C  20.154752  8.371221  0.150085
C  20.154752  9.823667  0.141827
C  18.905140  3.272000  0.094177
C  20.154752  4.000000  0.154796
C  20.154752  5.453610  0.155738
C  21.411000  6.197900  0.215022
C  21.411000  7.631998  0.210853
C  17.670751  1.101000  0.027623
C  18.905140  1.797813  0.086119
C  5.067250  5.453610  -0.223344
C  5.067250  4.000000  -0.058597
C  3.815571  3.272000  0.157310
C  3.815571  1.797813  0.053885
C  11.361143  3.272000  -0.152237
C  2.546438  1.101000  -0.078165
C  3.815571  7.631998  0.108773
C  3.815571  6.197900  0.098437
C  11.361143  7.631998  -0.582757
C  2.546438  5.453610  0.207045
C  11.361143  6.197900  -0.609499
C  2.546438  4.000000  0.123064
C  10.098375  5.453610  -0.505478
C  16.391568  3.272000  -0.045522
C  1.302141  3.272000  -0.038438
C  10.098375  4.000000  -0.505832
C  16.391568  1.797813  -0.062507
C  1.302141  1.797813  -0.056838
C  8.830644  3.272000  -0.380047
C  15.145562  1.101000  -0.090626
C  0.021251  1.101000  0.025231
C  11.361143  12.029000  0.133281
C  2.546438  9.823667  0.161742
C  11.361143  10.553000  -0.085567
C  2.546438  8.371221  0.221416
C  10.098375  9.823667  -0.446829
C  16.391568  7.631998  0.079709
C  1.302141  7.631998  0.106060
C  10.098375  8.371221  -0.503829
C  16.391568  6.197900  0.077539
C  1.302141  6.197900  0.099790
C  15.145562  5.453610  0.166302
C  0.021251  5.453610  0.006507
C  8.830644  7.631998  -0.514673
C  8.830644  6.197900  -0.537423
C  15.145562  4.000000  0.094803
C  0.021251  4.000000  -0.005156
C  7.582124  5.453610  -0.512032
C  13.876357  3.272000  0.124711
C  -1.214289  3.272000  0.069904
C  7.582124  4.000000  -0.501007
C  13.876357  1.797813  0.031243
C  -1.214289  1.797813  0.067922
C  10.098375  12.724286  0.189172
C  1.302141  10.553000  -0.003038
C  8.830644  12.029000  0.062062
C  15.145562  9.823667  0.104651
C  0.021251  9.823667  0.010771
C  8.830644  10.553000  -0.303740
C  15.145562  8.371221  0.185575
C  0.021251  8.371221  0.016040
C  7.582124  9.823667  -0.421744
C  13.876357  7.631998  0.078877
C  -1.214289  7.631998  0.046712
C  7.582124  8.371221  -0.486160
C  13.876357  6.197900  0.069807
C  -1.214289  6.197900  0.044583
C  6.330357  7.631998  -0.575501
C  12.623562  5.453610  -0.238644
C  -2.463372  5.453610  0.092236
C  6.330357  6.197900  -0.588564
C  12.623562  4.000000  -0.082398
C  -2.463372  4.000000  0.098392
C  7.582124  12.724286  0.209588
C  13.876357  10.553000  0.169410
C  -1.214289  10.553000  0.073184
C  6.330357  12.029000  0.153980
C  12.623562  9.823667  -0.019630
C  -2.463372  9.823667  0.090484
C  6.330357  10.553000  -0.051872
C  12.623562  8.371221  -0.228916
C  -2.463372  8.371221  0.087506
C  5.067250  9.823667  -0.015982
C  -3.721000  7.631998  0.103229
C  5.067250  8.371221  -0.191008
C  -3.721000  6.197900  0.107362
C  5.067250  12.724286  0.140365
C  3.815571  12.029000  0.142096
C  3.815571  10.553000  0.208629
C  2.546438  12.724286  -0.000140
C  1.302141  12.029000  -0.010424
C  6.330357  3.272000  -0.129679
C  15.145562  12.724286  -0.050459
C  0.021251  12.724286  0.051608
C  13.876357  12.029000  0.072026
C  -1.214289  12.029000  0.074204
C  12.623562  12.724286  0.092101
C  6.330357  1.797813  0.058266
C  8.830644  1.797813  -0.053845
C  11.361143  1.797813  0.039627
C  10.098375  1.101000  0.075046
C  7.582124  1.101000  0.081469
C  5.067250  1.101000  0.026481
C  12.623562  1.101000  0.012338
