142
frame	658
H  17.693000  13.826000  0.000000
H  19.858000  12.564000  0.000000
H  21.106000  10.363000  0.000000
H  22.366000  5.656000  0.000000
H  22.367000  8.165000  0.000000
H  19.852000  1.261000  0.000000
H  17.690000  -0.000000  0.000000
H  21.104000  3.459000  0.000000
H  2.530000  -0.005000  0.000000
H  15.160000  -0.002000  0.000000
H  0.000000  -0.000000  0.000000
H  -2.163000  1.262000  0.000000
H  -3.415000  3.463000  0.000000
H  -4.677000  8.168000  0.000000
H  -4.678000  5.662000  0.000000
H  -2.159000  12.565000  0.000000
H  10.109000  13.837000  0.000000
H  7.585000  13.838000  0.000000
H  5.062000  13.833000  0.000000
H  2.535000  13.828000  0.000000
H  15.163000  13.830000  0.000000
H  0.007000  13.825000  0.000000
H  -3.412000  10.366000  0.000000
H  12.635000  13.835000  0.000000
H  10.108000  -0.010000  0.000000
H  7.583000  -0.012000  0.000000
H  5.058000  -0.011000  0.000000
H  12.631000  -0.009000  0.000000
C  16.391568  10.553000  0.163914
C  16.391568  12.029000  0.085291
C  17.670751  12.724286  0.078674
C  17.670751  8.371221  0.454677
C  17.670751  9.823667  0.273904
C  18.905140  10.553000  0.245581
C  18.905140  12.029000  0.153855
C  17.670751  4.000000  0.287922
C  17.670751  5.453610  0.459594
C  18.905140  6.197900  0.570124
C  18.905140  7.631998  0.563489
C  20.154752  8.371221  0.461997
C  20.154752  9.823667  0.342155
C  18.905140  3.272000  0.277059
C  20.154752  4.000000  0.368339
C  20.154752  5.453610  0.457938
C  21.411000  6.197900  0.306528
C  21.411000  7.631998  0.304353
C  17.670751  1.101000  0.070205
C  18.905140  1.797813  0.164482
C  5.067250  5.453610  -0.066138
C  5.067250  4.000000  0.024120
C  3.815571  3.272000  0.233112
C  3.815571  1.797813  0.142226
C  11.361143  3.272000  -0.096995
C  2.546438  1.101000  0.034088
C  3.815571  7.631998  0.263248
C  3.815571  6.197900  0.252003
C  11.361143  7.631998  -0.160410
C  2.546438  5.453610  0.446720
C  11.361143  6.197900  -0.175609
C  2.546438  4.000000  0.339714
C  10.098375  5.453610  -0.119171
C  16.391568  3.272000  0.149149
C  1.302141  3.272000  0.141203
C  10.098375  4.000000  -0.170209
C  16.391568  1.797813  0.053650
C  1.302141  1.797813  0.063973
C  8.830644  3.272000  -0.145326
C  15.145562  1.101000  0.031958
C  0.021251  1.101000  0.079461
C  11.361143  12.029000  0.022140
C  2.546438  9.823667  0.378059
C  11.361143  10.553000  -0.036296
C  2.546438  8.371221  0.477505
C  10.098375  9.823667  -0.117724
C  16.391568  7.631998  0.471799
C  1.302141  7.631998  0.489808
C  10.098375  8.371221  -0.090351
C  16.391568  6.197900  0.484623
C  1.302141  6.197900  0.482774
C  15.145562  5.453610  0.451089
C  0.021251  5.453610  0.451729
C  8.830644  7.631998  -0.011724
C  8.830644  6.197900  -0.024118
C  15.145562  4.000000  0.333164
C  0.021251  4.000000  0.268374
C  7.582124  5.453610  -0.091344
C  13.876357  3.272000  0.220081
C  -1.214289  3.272000  0.215829
C  7.582124  4.000000  -0.158672
C  13.876357  1.797813  0.115949
C  -1.214289  1.797813  0.135358
C  10.098375  12.724286  0.089026
C  1.302141  10.553000  0.177199
C  8.830644  12.029000  0.019373
C  15.145562  9.823667  0.347615
C  0.021251  9.823667  0.272317
C  8.830644  10.553000  -0.064624
C  15.145562  8.371221  0.452914
C  0.021251  8.371221  0.453820
C  7.582124  9.823667  -0.100310
C  13.876357  7.631998  0.246732
C  -1.214289  7.631998  0.509136
C  7.582124  8.371221  -0.059518
C  13.876357  6.197900  0.243484
C  -1.214289  6.197900  0.510158
C  6.330357  7.631998  -0.157262
C  12.623562  5.453610  -0.084134
C  -2.463372  5.453610  0.386373
C  6.330357  6.197900  -0.157374
C  12.623562  4.000000  0.004536
C  -2.463372  4.000000  0.290219
C  7.582124  12.724286  0.100005
C  13.876357  10.553000  0.245822
C  -1.214289  10.553000  0.216469
C  6.330357  12.029000  0.054136
C  12.623562  9.823667  0.025351
C  -2.463372  9.823667  0.285974
C  6.330357  10.553000  -0.007254
C  12.623562  8.371221  -0.068613
C  -2.463372  8.371221  0.373147
C  5.067250  9.823667  0.077010
C  -3.721000  7.631998  0.180650
C  5.067250  8.371221  -0.032110
C  -3.721000  6.197900  0.180050
C  5.067250  12.724286  0.128376
C  3.815571  12.029000  0.229049
C  3.815571  10.553000  0.301773
C  2.546438  12.724286  0.120173
C  1.302141  12.029000  0.109829
C  6.330357  3.272000  -0.068907
C  15.145562  12.724286  0.067046
C  0.021251  12.724286  0.093013
C  13.876357  12.029000  0.181130
C  -1.214289  12.029000  0.142787
C  12.623562  12.724286  0.084250
C  6.330357  1.797813  -0.075004
C  8.830644  1.797813  -0.104560
C  11.361143  1.797813  -0.072371
C  10.098375  1.101000  -0.045008
C  7.582124  1.101000  -0.046054
C  5.067250  1.101000  0.000117
C  12.623562  1.101000  -0.023094
