142
frame	168
H  17.693000  13.826000  0.000000
H  19.858000  12.564000  0.000000
H  21.106000  10.363000  0.000000
H  22.366000  5.656000  0.000000
H  22.367000  8.165000  0.000000
H  19.852000  1.261000  0.000000
H  17.690000  -0.000000  0.000000
H  21.104000  3.459000  0.000000
H  2.530000  -0.005000  0.000000
H  15.160000  -0.002000  0.000000
H  0.000000  -0.000000  0.000000
H  -2.163000  1.262000  0.000000
H  -3.415000  3.463000  0.000000
H  -4.677000  8.168000  0.000000
H  -4.678000  5.662000  0.000000
H  -2.159000  12.565000  0.000000
H  10.109000  13.837000  0.000000
H  7.585000  13.838000  0.000000
H  5.062000  13.833000  0.000000
H  2.535000  13.828000  0.000000
H  15.163000  13.830000  0.000000
H  0.007000  13.825000  0.000000
H  -3.412000  10.366000  0.000000
H  12.635000  13.835000  0.000000
H  10.108000  -0.010000  0.000000
H  7.583000  -0.012000  0.000000
H  5.058000  -0.011000  0.000000
H  12.631000  -0.009000  0.000000
C  16.391568  10.553000  0.015455
C  16.391568  12.029000  0.032393
C  17.670751  12.724286  0.217479
C  17.670751  8.371221  0.031025
C  17.670751  9.823667  0.123216
C  18.905140  10.553000  0.389428
C  18.905140  12.029000  0.416092
C  17.670751  4.000000  0.131516
C  17.670751  5.453610  0.035359
C  18.905140  6.197900  0.216348
C  18.905140  7.631998  0.223610
C  20.154752  8.371221  0.295457
C  20.154752  9.823667  0.342042
C  18.905140  3.272000  0.411930
C  20.154752  4.000000  0.357320
C  20.154752  5.453610  0.300092
C  21.411000  6.197900  0.242986
C  21.411000  7.631998  0.232962
C  17.670751  1.101000  0.208138
C  18.905140  1.797813  0.413004
C  5.067250  5.453610  -0.437966
C  5.067250  4.000000  -0.528313
C  3.815571  3.272000  -0.335077
C  3.815571  1.797813  -0.329600
C  11.361143  3.272000  -0.666367
C  2.546438  1.101000  -0.202461
C  3.815571  7.631998  -0.339568
C  3.815571  6.197900  -0.336369
C  11.361143  7.631998  -0.411109
C  2.546438  5.453610  -0.106850
C  11.361143  6.197900  -0.437043
C  2.546438  4.000000  -0.096789
C  10.098375  5.453610  -0.608290
C  16.391568  3.272000  0.001419
C  1.302141  3.272000  -0.011385
C  10.098375  4.000000  -0.794470
C  16.391568  1.797813  0.012401
C  1.302141  1.797813  0.010535
C  8.830644  3.272000  -0.715134
C  15.145562  1.101000  -0.197504
C  0.021251  1.101000  0.211463
C  11.361143  12.029000  -0.335572
C  2.546438  9.823667  -0.059282
C  11.361143  10.553000  -0.609938
C  2.546438  8.371221  -0.097859
C  10.098375  9.823667  -0.731399
C  16.391568  7.631998  -0.061786
C  1.302141  7.631998  -0.049557
C  10.098375  8.371221  -0.577425
C  16.391568  6.197900  -0.046933
C  1.302141  6.197900  -0.064696
C  15.145562  5.453610  -0.122622
C  0.021251  5.453610  0.008224
C  8.830644  7.631998  -0.559157
C  8.830644  6.197900  -0.592920
C  15.145562  4.000000  -0.093977
C  0.021251  4.000000  0.109270
C  7.582124  5.453610  -0.597943
C  13.876357  3.272000  -0.344604
C  -1.214289  3.272000  0.390136
C  7.582124  4.000000  -0.788154
C  13.876357  1.797813  -0.327680
C  -1.214289  1.797813  0.411235
C  10.098375  12.724286  -0.202261
C  1.302141  10.553000  0.019689
C  8.830644  12.029000  -0.356624
C  15.145562  9.823667  -0.075548
C  0.021251  9.823667  0.123541
C  8.830644  10.553000  -0.644987
C  15.145562  8.371221  -0.111606
C  0.021251  8.371221  0.019626
C  7.582124  9.823667  -0.728016
C  13.876357  7.631998  -0.350933
C  -1.214289  7.631998  0.179007
C  7.582124  8.371221  -0.570026
C  13.876357  6.197900  -0.358353
C  -1.214289  6.197900  0.181769
C  6.330357  7.631998  -0.407133
C  12.623562  5.453610  -0.443418
C  -2.463372  5.453610  0.243047
C  6.330357  6.197900  -0.420131
C  12.623562  4.000000  -0.534931
C  -2.463372  4.000000  0.309235
C  7.582124  12.724286  -0.185915
C  13.876357  10.553000  -0.287194
C  -1.214289  10.553000  0.390540
C  6.330357  12.029000  -0.312950
C  12.623562  9.823667  -0.487924
C  -2.463372  9.823667  0.298832
C  6.330357  10.553000  -0.584809
C  12.623562  8.371221  -0.431356
C  -2.463372  8.371221  0.234019
C  5.067250  9.823667  -0.474113
C  -3.721000  7.631998  0.133197
C  5.067250  8.371221  -0.410885
C  -3.721000  6.197900  0.136518
C  5.067250  12.724286  -0.164193
C  3.815571  12.029000  -0.241841
C  3.815571  10.553000  -0.274190
C  2.546438  12.724286  -0.114651
C  1.302141  12.029000  0.064545
C  6.330357  3.272000  -0.671045
C  15.145562  12.724286  -0.152828
C  0.021251  12.724286  0.232954
C  13.876357  12.029000  -0.275041
C  -1.214289  12.029000  0.404355
C  12.623562  12.724286  -0.206785
C  6.330357  1.797813  -0.427826
C  8.830644  1.797813  -0.471030
C  11.361143  1.797813  -0.431695
C  10.098375  1.101000  -0.333677
C  7.582124  1.101000  -0.321271
C  5.067250  1.101000  -0.280707
C  12.623562  1.101000  -0.290134
