142
frame	455
H  17.693000  13.826000  0.000000
H  19.858000  12.564000  0.000000
H  21.106000  10.363000  0.000000
H  22.366000  5.656000  0.000000
H  22.367000  8.165000  0.000000
H  19.852000  1.261000  0.000000
H  17.690000  -0.000000  0.000000
H  21.104000  3.459000  0.000000
H  2.530000  -0.005000  0.000000
H  15.160000  -0.002000  0.000000
H  0.000000  -0.000000  0.000000
H  -2.163000  1.262000  0.000000
H  -3.415000  3.463000  0.000000
H  -4.677000  8.168000  0.000000
H  -4.678000  5.662000  0.000000
H  -2.159000  12.565000  0.000000
H  10.109000  13.837000  0.000000
H  7.585000  13.838000  0.000000
H  5.062000  13.833000  0.000000
H  2.535000  13.828000  0.000000
H  15.163000  13.830000  0.000000
H  0.007000  13.825000  0.000000
H  -3.412000  10.366000  0.000000
H  12.635000  13.835000  0.000000
H  10.108000  -0.010000  0.000000
H  7.583000  -0.012000  0.000000
H  5.058000  -0.011000  0.000000
H  12.631000  -0.009000  0.000000
C  16.391568  10.553000  -0.437360
C  16.391568  12.029000  -0.421576
C  17.670751  12.724286  -0.192624
C  17.670751  8.371221  -0.480300
C  17.670751  9.823667  -0.331600
C  18.905140  10.553000  -0.051594
C  18.905140  12.029000  -0.001811
C  17.670751  4.000000  -0.332321
C  17.670751  5.453610  -0.495252
C  18.905140  6.197900  -0.160258
C  18.905140  7.631998  -0.159320
C  20.154752  8.371221  0.130907
C  20.154752  9.823667  0.137208
C  18.905140  3.272000  -0.036863
C  20.154752  4.000000  0.158718
C  20.154752  5.453610  0.133249
C  21.411000  6.197900  0.229312
C  21.411000  7.631998  0.228881
C  17.670751  1.101000  -0.204746
C  18.905140  1.797813  0.011109
C  5.067250  5.453610  -0.435607
C  5.067250  4.000000  -0.530001
C  3.815571  3.272000  -0.574015
C  3.815571  1.797813  -0.353641
C  11.361143  3.272000  -0.190603
C  2.546438  1.101000  -0.353655
C  3.815571  7.631998  -0.471028
C  3.815571  6.197900  -0.476015
C  11.361143  7.631998  -0.258735
C  2.546438  5.453610  -0.526973
C  11.361143  6.197900  -0.264147
C  2.546438  4.000000  -0.487925
C  10.098375  5.453610  -0.248660
C  16.391568  3.272000  -0.456578
C  1.302141  3.272000  -0.465379
C  10.098375  4.000000  -0.098650
C  16.391568  1.797813  -0.419955
C  1.302141  1.797813  -0.452400
C  8.830644  3.272000  0.073334
C  15.145562  1.101000  -0.356090
C  0.021251  1.101000  -0.201877
C  11.361143  12.029000  0.077968
C  2.546438  9.823667  -0.466158
C  11.361143  10.553000  -0.127076
C  2.546438  8.371221  -0.517989
C  10.098375  9.823667  -0.036768
C  16.391568  7.631998  -0.575675
C  1.302141  7.631998  -0.652242
C  10.098375  8.371221  -0.224183
C  16.391568  6.197900  -0.590832
C  1.302141  6.197900  -0.647608
C  15.145562  5.453610  -0.480578
C  0.021251  5.453610  -0.556640
C  8.830644  7.631998  -0.411867
C  8.830644  6.197900  -0.431549
C  15.145562  4.000000  -0.470327
C  0.021251  4.000000  -0.378845
C  7.582124  5.453610  -0.261334
C  13.876357  3.272000  -0.561073
C  -1.214289  3.272000  -0.094219
C  7.582124  4.000000  -0.125035
C  13.876357  1.797813  -0.356702
C  -1.214289  1.797813  0.002696
C  10.098375  12.724286  0.140411
C  1.302141  10.553000  -0.445863
C  8.830644  12.029000  0.229423
C  15.145562  9.823667  -0.445859
C  0.021251  9.823667  -0.369871
C  8.830644  10.553000  0.161984
C  15.145562  8.371221  -0.471917
C  0.021251  8.371221  -0.550402
C  7.582124  9.823667  -0.048381
C  13.876357  7.631998  -0.432508
C  -1.214289  7.631998  -0.227841
C  7.582124  8.371221  -0.225304
C  13.876357  6.197900  -0.430492
C  -1.214289  6.197900  -0.238274
C  6.330357  7.631998  -0.261133
C  12.623562  5.453610  -0.412930
C  -2.463372  5.453610  0.046767
C  6.330357  6.197900  -0.273281
C  12.623562  4.000000  -0.517900
C  -2.463372  4.000000  0.094050
C  7.582124  12.724286  0.157291
C  13.876357  10.553000  -0.498802
C  -1.214289  10.553000  -0.102666
C  6.330357  12.029000  0.081968
C  12.623562  9.823667  -0.456716
C  -2.463372  9.823667  0.080701
C  6.330357  10.553000  -0.134193
C  12.623562  8.371221  -0.392694
C  -2.463372  8.371221  0.034716
C  5.067250  9.823667  -0.487210
C  -3.721000  7.631998  0.089729
C  5.067250  8.371221  -0.408485
C  -3.721000  6.197900  0.093743
C  5.067250  12.724286  0.084857
C  3.815571  12.029000  -0.277062
C  3.815571  10.553000  -0.510394
C  2.546438  12.724286  -0.278288
C  1.302141  12.029000  -0.407595
C  6.330357  3.272000  -0.206058
C  15.145562  12.724286  -0.316972
C  0.021251  12.724286  -0.179584
C  13.876357  12.029000  -0.280991
C  -1.214289  12.029000  0.006811
C  12.623562  12.724286  0.068851
C  6.330357  1.797813  -0.007063
C  8.830644  1.797813  0.121681
C  11.361143  1.797813  -0.007997
C  10.098375  1.101000  0.038626
C  7.582124  1.101000  0.027707
C  5.067250  1.101000  -0.014752
C  12.623562  1.101000  -0.012843
