142
frame	11
H  17.693000  13.826000  0.000000
H  19.858000  12.564000  0.000000
H  21.106000  10.363000  0.000000
H  22.366000  5.656000  0.000000
H  22.367000  8.165000  0.000000
H  19.852000  1.261000  0.000000
H  17.690000  -0.000000  0.000000
H  21.104000  3.459000  0.000000
H  2.530000  -0.005000  0.000000
H  15.160000  -0.002000  0.000000
H  0.000000  -0.000000  0.000000
H  -2.163000  1.262000  0.000000
H  -3.415000  3.463000  0.000000
H  -4.677000  8.168000  0.000000
H  -4.678000  5.662000  0.000000
H  -2.159000  12.565000  0.000000
H  10.109000  13.837000  0.000000
H  7.585000  13.838000  0.000000
H  5.062000  13.833000  0.000000
H  2.535000  13.828000  0.000000
H  15.163000  13.830000  0.000000
H  0.007000  13.825000  0.000000
H  -3.412000  10.366000  0.000000
H  12.635000  13.835000  0.000000
H  10.108000  -0.010000  0.000000
H  7.583000  -0.012000  0.000000
H  5.058000  -0.011000  0.000000
H  12.631000  -0.009000  0.000000
C  16.391568  10.553000  0.024524
C  16.391568  12.029000  0.012410
C  17.670751  12.724286  0.017137
C  17.670751  8.371221  0.062736
C  17.670751  9.823667  0.051993
C  18.905140  10.553000  0.074563
C  18.905140  12.029000  0.048356
C  17.670751  4.000000  0.051139
C  17.670751  5.453610  0.062348
C  18.905140  6.197900  0.106170
C  18.905140  7.631998  0.103422
C  20.154752  8.371221  0.145364
C  20.154752  9.823667  0.122965
C  18.905140  3.272000  0.084406
C  20.154752  4.000000  0.137917
C  20.154752  5.453610  0.153065
C  21.411000  6.197900  0.211069
C  21.411000  7.631998  0.205935
C  17.670751  1.101000  0.016081
C  18.905140  1.797813  0.061129
C  5.067250  5.453610  0.003509
C  5.067250  4.000000  0.011027
C  3.815571  3.272000  0.003052
C  3.815571  1.797813  -0.027036
C  11.361143  3.272000  -0.052954
C  2.546438  1.101000  -0.025958
C  3.815571  7.631998  0.043953
C  3.815571  6.197900  0.030832
C  11.361143  7.631998  0.107706
C  2.546438  5.453610  0.041783
C  11.361143  6.197900  0.119498
C  2.546438  4.000000  0.022574
C  10.098375  5.453610  0.194808
C  16.391568  3.272000  0.011465
C  1.302141  3.272000  0.024513
C  10.098375  4.000000  0.077078
C  16.391568  1.797813  -0.005676
C  1.302141  1.797813  0.002625
C  8.830644  3.272000  -0.017159
C  15.145562  1.101000  -0.041007
C  0.021251  1.101000  0.013888
C  11.361143  12.029000  0.025506
C  2.546438  9.823667  0.059300
C  11.361143  10.553000  0.014408
C  2.546438  8.371221  0.060225
C  10.098375  9.823667  0.114417
C  16.391568  7.631998  0.036722
C  1.302141  7.631998  0.059481
C  10.098375  8.371221  0.201010
C  16.391568  6.197900  0.034572
C  1.302141  6.197900  0.054310
C  15.145562  5.453610  0.007831
C  0.021251  5.453610  0.059310
C  8.830644  7.631998  0.463911
C  8.830644  6.197900  0.464631
C  15.145562  4.000000  -0.005290
C  0.021251  4.000000  0.047101
C  7.582124  5.453610  0.213168
C  13.876357  3.272000  -0.026976
C  -1.214289  3.272000  0.058544
C  7.582124  4.000000  0.090455
C  13.876357  1.797813  -0.049977
C  -1.214289  1.797813  0.042733
C  10.098375  12.724286  0.052271
C  1.302141  10.553000  0.054572
C  8.830644  12.029000  0.048908
C  15.145562  9.823667  0.016446
C  0.021251  9.823667  0.059924
C  8.830644  10.553000  0.068971
C  15.145562  8.371221  0.019256
C  0.021251  8.371221  0.063739
C  7.582124  9.823667  0.155567
C  13.876357  7.631998  -0.000851
C  -1.214289  7.631998  0.072873
C  7.582124  8.371221  0.244275
C  13.876357  6.197900  -0.012031
C  -1.214289  6.197900  0.073677
C  6.330357  7.631998  0.166044
C  12.623562  5.453610  -0.031207
C  -2.463372  5.453610  0.085759
C  6.330357  6.197900  0.146903
C  12.623562  4.000000  -0.022676
C  -2.463372  4.000000  0.080141
C  7.582124  12.724286  0.073569
C  13.876357  10.553000  0.014981
C  -1.214289  10.553000  0.059659
C  6.330357  12.029000  0.060525
C  12.623562  9.823667  0.021972
C  -2.463372  9.823667  0.071152
C  6.330357  10.553000  0.052711
C  12.623562  8.371221  -0.011709
C  -2.463372  8.371221  0.080023
C  5.067250  9.823667  0.070680
C  -3.721000  7.631998  0.096005
C  5.067250  8.371221  0.033888
C  -3.721000  6.197900  0.100151
C  5.067250  12.724286  0.065890
C  3.815571  12.029000  0.060015
C  3.815571  10.553000  0.065031
C  2.546438  12.724286  0.048071
C  1.302141  12.029000  0.047762
C  6.330357  3.272000  -0.029409
C  15.145562  12.724286  0.001949
C  0.021251  12.724286  0.039962
C  13.876357  12.029000  0.009058
C  -1.214289  12.029000  0.046925
C  12.623562  12.724286  0.018015
C  6.330357  1.797813  -0.058485
C  8.830644  1.797813  -0.078003
C  11.361143  1.797813  -0.077569
C  10.098375  1.101000  -0.080585
C  7.582124  1.101000  -0.071248
C  5.067250  1.101000  -0.054015
C  12.623562  1.101000  -0.073875
