142
frame	156
H  17.693000  13.826000  0.000000
H  19.858000  12.564000  0.000000
H  21.106000  10.363000  0.000000
H  22.366000  5.656000  0.000000
H  22.367000  8.165000  0.000000
H  19.852000  1.261000  0.000000
H  17.690000  -0.000000  0.000000
H  21.104000  3.459000  0.000000
H  2.530000  -0.005000  0.000000
H  15.160000  -0.002000  0.000000
H  0.000000  -0.000000  0.000000
H  -2.163000  1.262000  0.000000
H  -3.415000  3.463000  0.000000
H  -4.677000  8.168000  0.000000
H  -4.678000  5.662000  0.000000
H  -2.159000  12.565000  0.000000
H  10.109000  13.837000  0.000000
H  7.585000  13.838000  0.000000
H  5.062000  13.833000  0.000000
H  2.535000  13.828000  0.000000
H  15.163000  13.830000  0.000000
H  0.007000  13.825000  0.000000
H  -3.412000  10.366000  0.000000
H  12.635000  13.835000  0.000000
H  10.108000  -0.010000  0.000000
H  7.583000  -0.012000  0.000000
H  5.058000  -0.011000  0.000000
H  12.631000  -0.009000  0.000000
C  16.391568  10.553000  0.081160
C  16.391568  12.029000  0.120291
C  17.670751  12.724286  0.243722
C  17.670751  8.371221  0.156910
C  17.670751  9.823667  0.149862
C  18.905140  10.553000  0.248245
C  18.905140  12.029000  0.311323
C  17.670751  4.000000  0.160172
C  17.670751  5.453610  0.143698
C  18.905140  6.197900  0.270267
C  18.905140  7.631998  0.268172
C  20.154752  8.371221  0.199104
C  20.154752  9.823667  0.207868
C  18.905140  3.272000  0.272184
C  20.154752  4.000000  0.217251
C  20.154752  5.453610  0.211478
C  21.411000  6.197900  0.169876
C  21.411000  7.631998  0.165622
C  17.670751  1.101000  0.233698
C  18.905140  1.797813  0.325215
C  5.067250  5.453610  -0.405973
C  5.067250  4.000000  -0.410664
C  3.815571  3.272000  -0.249053
C  3.815571  1.797813  -0.295430
C  11.361143  3.272000  -0.551763
C  2.546438  1.101000  -0.077056
C  3.815571  7.631998  -0.262892
C  3.815571  6.197900  -0.267324
C  11.361143  7.631998  -0.515397
C  2.546438  5.453610  -0.145535
C  11.361143  6.197900  -0.519462
C  2.546438  4.000000  -0.092291
C  10.098375  5.453610  -0.615055
C  16.391568  3.272000  0.062125
C  1.302141  3.272000  0.057901
C  10.098375  4.000000  -0.742203
C  16.391568  1.797813  0.101109
C  1.302141  1.797813  0.099995
C  8.830644  3.272000  -0.737285
C  15.145562  1.101000  -0.081034
C  0.021251  1.101000  0.235376
C  11.361143  12.029000  -0.391159
C  2.546438  9.823667  -0.061837
C  11.361143  10.553000  -0.485789
C  2.546438  8.371221  -0.121851
C  10.098375  9.823667  -0.673643
C  16.391568  7.631998  -0.053386
C  1.302141  7.631998  -0.054898
C  10.098375  8.371221  -0.594992
C  16.391568  6.197900  -0.053367
C  1.302141  6.197900  -0.063062
C  15.145562  5.453610  -0.151956
C  0.021251  5.453610  0.132097
C  8.830644  7.631998  -0.463180
C  8.830644  6.197900  -0.473110
C  15.145562  4.000000  -0.093615
C  0.021251  4.000000  0.139139
C  7.582124  5.453610  -0.602190
C  13.876357  3.272000  -0.255015
C  -1.214289  3.272000  0.246948
C  7.582124  4.000000  -0.741665
C  13.876357  1.797813  -0.289625
C  -1.214289  1.797813  0.325901
C  10.098375  12.724286  -0.189986
C  1.302141  10.553000  0.088643
C  8.830644  12.029000  -0.469396
C  15.145562  9.823667  -0.072101
C  0.021251  9.823667  0.157880
C  8.830644  10.553000  -0.661390
C  15.145562  8.371221  -0.162330
C  0.021251  8.371221  0.137336
C  7.582124  9.823667  -0.670402
C  13.876357  7.631998  -0.281673
C  -1.214289  7.631998  0.236263
C  7.582124  8.371221  -0.578350
C  13.876357  6.197900  -0.293294
C  -1.214289  6.197900  0.238254
C  6.330357  7.631998  -0.487954
C  12.623562  5.453610  -0.413860
C  -2.463372  5.453610  0.148091
C  6.330357  6.197900  -0.511980
C  12.623562  4.000000  -0.429689
C  -2.463372  4.000000  0.171437
C  7.582124  12.724286  -0.179074
C  13.876357  10.553000  -0.211134
C  -1.214289  10.553000  0.249902
C  6.330357  12.029000  -0.359737
C  12.623562  9.823667  -0.376047
C  -2.463372  9.823667  0.160287
C  6.330357  10.553000  -0.469522
C  12.623562  8.371221  -0.402402
C  -2.463372  8.371221  0.143327
C  5.067250  9.823667  -0.360219
C  -3.721000  7.631998  0.052524
C  5.067250  8.371221  -0.394454
C  -3.721000  6.197900  0.057467
C  5.067250  12.724286  -0.204011
C  3.815571  12.029000  -0.205680
C  3.815571  10.553000  -0.186362
C  2.546438  12.724286  0.013072
C  1.302141  12.029000  0.146913
C  6.330357  3.272000  -0.545397
C  15.145562  12.724286  -0.030044
C  0.021251  12.724286  0.251240
C  13.876357  12.029000  -0.221972
C  -1.214289  12.029000  0.324576
C  12.623562  12.724286  -0.251288
C  6.330357  1.797813  -0.479789
C  8.830644  1.797813  -0.584956
C  11.361143  1.797813  -0.489241
C  10.098375  1.101000  -0.316519
C  7.582124  1.101000  -0.312345
C  5.067250  1.101000  -0.324104
C  12.623562  1.101000  -0.328497
