142
frame	577
H  17.693000  13.826000  0.000000
H  19.858000  12.564000  0.000000
H  21.106000  10.363000  0.000000
H  22.366000  5.656000  0.000000
H  22.367000  8.165000  0.000000
H  19.852000  1.261000  0.000000
H  17.690000  -0.000000  0.000000
H  21.104000  3.459000  0.000000
H  2.530000  -0.005000  0.000000
H  15.160000  -0.002000  0.000000
H  0.000000  -0.000000  0.000000
H  -2.163000  1.262000  0.000000
H  -3.415000  3.463000  0.000000
H  -4.677000  8.168000  0.000000
H  -4.678000  5.662000  0.000000
H  -2.159000  12.565000  0.000000
H  10.109000  13.837000  0.000000
H  7.585000  13.838000  0.000000
H  5.062000  13.833000  0.000000
H  2.535000  13.828000  0.000000
H  15.163000  13.830000  0.000000
H  0.007000  13.825000  0.000000
H  -3.412000  10.366000  0.000000
H  12.635000  13.835000  0.000000
H  10.108000  -0.010000  0.000000
H  7.583000  -0.012000  0.000000
H  5.058000  -0.011000  0.000000
H  12.631000  -0.009000  0.000000
C  16.391568  10.553000  0.015234
C  16.391568  12.029000  0.096811
C  17.670751  12.724286  0.101598
C  17.670751  8.371221  -0.016957
C  17.670751  9.823667  0.053391
C  18.905140  10.553000  0.157599
C  18.905140  12.029000  0.187513
C  17.670751  4.000000  0.052136
C  17.670751  5.453610  -0.020118
C  18.905140  6.197900  0.019221
C  18.905140  7.631998  0.018198
C  20.154752  8.371221  0.088187
C  20.154752  9.823667  0.190733
C  18.905140  3.272000  0.170484
C  20.154752  4.000000  0.199491
C  20.154752  5.453610  0.071971
C  21.411000  6.197900  0.116374
C  21.411000  7.631998  0.124147
C  17.670751  1.101000  0.105578
C  18.905140  1.797813  0.213050
C  5.067250  5.453610  0.144976
C  5.067250  4.000000  0.048152
C  3.815571  3.272000  -0.007011
C  3.815571  1.797813  -0.119499
C  11.361143  3.272000  -0.215049
C  2.546438  1.101000  -0.046265
C  3.815571  7.631998  0.262657
C  3.815571  6.197900  0.253824
C  11.361143  7.631998  -0.184776
C  2.546438  5.453610  0.101007
C  11.361143  6.197900  -0.202060
C  2.546438  4.000000  -0.018573
C  10.098375  5.453610  -0.353550
C  16.391568  3.272000  -0.004723
C  1.302141  3.272000  -0.032393
C  10.098375  4.000000  -0.401489
C  16.391568  1.797813  0.067643
C  1.302141  1.797813  0.068962
C  8.830644  3.272000  -0.384450
C  15.145562  1.101000  -0.035257
C  0.021251  1.101000  0.086807
C  11.361143  12.029000  -0.150483
C  2.546438  9.823667  0.003251
C  11.361143  10.553000  -0.176386
C  2.546438  8.371221  0.127625
C  10.098375  9.823667  -0.352783
C  16.391568  7.631998  0.022083
C  1.302141  7.631998  0.010525
C  10.098375  8.371221  -0.309011
C  16.391568  6.197900  0.019824
C  1.302141  6.197900  0.016433
C  15.145562  5.453610  0.114954
C  0.021251  5.453610  -0.043058
C  8.830644  7.631998  -0.321726
C  8.830644  6.197900  -0.338821
C  15.145562  4.000000  0.004020
C  0.021251  4.000000  0.020830
C  7.582124  5.453610  -0.354894
C  13.876357  3.272000  0.003713
C  -1.214289  3.272000  0.136400
C  7.582124  4.000000  -0.386605
C  13.876357  1.797813  -0.102564
C  -1.214289  1.797813  0.189806
C  10.098375  12.724286  -0.056231
C  1.302141  10.553000  -0.002219
C  8.830644  12.029000  -0.140869
C  15.145562  9.823667  0.018812
C  0.021251  9.823667  0.036864
C  8.830644  10.553000  -0.323930
C  15.145562  8.371221  0.127687
C  0.021251  8.371221  -0.054477
C  7.582124  9.823667  -0.335040
C  13.876357  7.631998  0.263846
C  -1.214289  7.631998  -0.019784
C  7.582124  8.371221  -0.327273
C  13.876357  6.197900  0.257534
C  -1.214289  6.197900  -0.018450
C  6.330357  7.631998  -0.182344
C  12.623562  5.453610  0.145748
C  -2.463372  5.453610  0.030674
C  6.330357  6.197900  -0.195690
C  12.623562  4.000000  0.054087
C  -2.463372  4.000000  0.130422
C  7.582124  12.724286  -0.047849
C  13.876357  10.553000  0.031061
C  -1.214289  10.553000  0.151899
C  6.330357  12.029000  -0.139036
C  12.623562  9.823667  0.073366
C  -2.463372  9.823667  0.134539
C  6.330357  10.553000  -0.137100
C  12.623562  8.371221  0.161147
C  -2.463372  8.371221  0.015214
C  5.067250  9.823667  0.078023
C  -3.721000  7.631998  0.029106
C  5.067250  8.371221  0.172537
C  -3.721000  6.197900  0.031982
C  5.067250  12.724286  -0.127790
C  3.815571  12.029000  -0.041600
C  3.815571  10.553000  0.026557
C  2.546438  12.724286  0.030528
C  1.302141  12.029000  0.117007
C  6.330357  3.272000  -0.200686
C  15.145562  12.724286  0.006817
C  0.021251  12.724286  0.121057
C  13.876357  12.029000  -0.053433
C  -1.214289  12.029000  0.192659
C  12.623562  12.724286  -0.145694
C  6.330357  1.797813  -0.234898
C  8.830644  1.797813  -0.240204
C  11.361143  1.797813  -0.237932
C  10.098375  1.101000  -0.170371
C  7.582124  1.101000  -0.172969
C  5.067250  1.101000  -0.235761
C  12.623562  1.101000  -0.241264
