142
frame	602
H  17.693000  13.826000  0.000000
H  19.858000  12.564000  0.000000
H  21.106000  10.363000  0.000000
H  22.366000  5.656000  0.000000
H  22.367000  8.165000  0.000000
H  19.852000  1.261000  0.000000
H  17.690000  -0.000000  0.000000
H  21.104000  3.459000  0.000000
H  2.530000  -0.005000  0.000000
H  15.160000  -0.002000  0.000000
H  0.000000  -0.000000  0.000000
H  -2.163000  1.262000  0.000000
H  -3.415000  3.463000  0.000000
H  -4.677000  8.168000  0.000000
H  -4.678000  5.662000  0.000000
H  -2.159000  12.565000  0.000000
H  10.109000  13.837000  0.000000
H  7.585000  13.838000  0.000000
H  5.062000  13.833000  0.000000
H  2.535000  13.828000  0.000000
H  15.163000  13.830000  0.000000
H  0.007000  13.825000  0.000000
H  -3.412000  10.366000  0.000000
H  12.635000  13.835000  0.000000
H  10.108000  -0.010000  0.000000
H  7.583000  -0.012000  0.000000
H  5.058000  -0.011000  0.000000
H  12.631000  -0.009000  0.000000
C  16.391568  10.553000  0.143829
C  16.391568  12.029000  0.015788
C  17.670751  12.724286  0.062798
C  17.670751  8.371221  0.261482
C  17.670751  9.823667  0.082517
C  18.905140  10.553000  -0.034728
C  18.905140  12.029000  -0.006930
C  17.670751  4.000000  0.076925
C  17.670751  5.453610  0.242669
C  18.905140  6.197900  0.273310
C  18.905140  7.631998  0.282469
C  20.154752  8.371221  0.133275
C  20.154752  9.823667  -0.024987
C  18.905140  3.272000  -0.017843
C  20.154752  4.000000  -0.005871
C  20.154752  5.453610  0.138788
C  21.411000  6.197900  0.150163
C  21.411000  7.631998  0.141154
C  17.670751  1.101000  0.057743
C  18.905140  1.797813  0.000780
C  5.067250  5.453610  0.085276
C  5.067250  4.000000  -0.067110
C  3.815571  3.272000  0.025658
C  3.815571  1.797813  -0.111392
C  11.361143  3.272000  -0.115853
C  2.546438  1.101000  -0.100349
C  3.815571  7.631998  0.238257
C  3.815571  6.197900  0.227281
C  11.361143  7.631998  0.042648
C  2.546438  5.453610  0.278744
C  11.361143  6.197900  0.033768
C  2.546438  4.000000  0.222473
C  10.098375  5.453610  -0.333841
C  16.391568  3.272000  0.144470
C  1.302141  3.272000  0.125312
C  10.098375  4.000000  -0.240137
C  16.391568  1.797813  0.012468
C  1.302141  1.797813  -0.007851
C  8.830644  3.272000  -0.327518
C  15.145562  1.101000  -0.091540
C  0.021251  1.101000  0.063290
C  11.361143  12.029000  -0.075121
C  2.546438  9.823667  0.255001
C  11.361143  10.553000  -0.053017
C  2.546438  8.371221  0.281715
C  10.098375  9.823667  -0.190693
C  16.391568  7.631998  0.289369
C  1.302141  7.631998  0.268899
C  10.098375  8.371221  -0.328195
C  16.391568  6.197900  0.286345
C  1.302141  6.197900  0.254770
C  15.145562  5.453610  0.277723
C  0.021251  5.453610  0.211883
C  8.830644  7.631998  -0.665834
C  8.830644  6.197900  -0.680630
C  15.145562  4.000000  0.223759
C  0.021251  4.000000  0.047970
C  7.582124  5.453610  -0.319101
C  13.876357  3.272000  0.031758
C  -1.214289  3.272000  -0.066143
C  7.582124  4.000000  -0.244872
C  13.876357  1.797813  -0.113468
C  -1.214289  1.797813  -0.029042
C  10.098375  12.724286  -0.160747
C  1.302141  10.553000  0.151753
C  8.830644  12.029000  -0.285389
C  15.145562  9.823667  0.248126
C  0.021251  9.823667  0.060153
C  8.830644  10.553000  -0.260305
C  15.145562  8.371221  0.285687
C  0.021251  8.371221  0.232439
C  7.582124  9.823667  -0.187446
C  13.876357  7.631998  0.220079
C  -1.214289  7.631998  0.238212
C  7.582124  8.371221  -0.294478
C  13.876357  6.197900  0.211884
C  -1.214289  6.197900  0.242969
C  6.330357  7.631998  0.058312
C  12.623562  5.453610  0.075284
C  -2.463372  5.453610  0.088375
C  6.330357  6.197900  0.045149
C  12.623562  4.000000  -0.076669
C  -2.463372  4.000000  -0.047733
C  7.582124  12.724286  -0.127856
C  13.876357  10.553000  0.067485
C  -1.214289  10.553000  -0.055813
C  6.330357  12.029000  -0.040689
C  12.623562  9.823667  -0.025731
C  -2.463372  9.823667  -0.058904
C  6.330357  10.553000  -0.061459
C  12.623562  8.371221  0.087692
C  -2.463372  8.371221  0.093366
C  5.067250  9.823667  -0.008919
C  -3.721000  7.631998  0.053227
C  5.067250  8.371221  0.102674
C  -3.721000  6.197900  0.060520
C  5.067250  12.724286  0.051742
C  3.815571  12.029000  -0.041631
C  3.815571  10.553000  0.081762
C  2.546438  12.724286  -0.036507
C  1.302141  12.029000  0.033482
C  6.330357  3.272000  -0.116255
C  15.145562  12.724286  -0.066763
C  0.021251  12.724286  0.091428
C  13.876357  12.029000  -0.059510
C  -1.214289  12.029000  -0.003471
C  12.623562  12.724286  0.018149
C  6.330357  1.797813  -0.142731
C  8.830644  1.797813  -0.391687
C  11.361143  1.797813  -0.148975
C  10.098375  1.101000  -0.269143
C  7.582124  1.101000  -0.256302
C  5.067250  1.101000  -0.050079
C  12.623562  1.101000  -0.053715
