142
frame	16
H  17.693000  13.826000  0.000000
H  19.858000  12.564000  0.000000
H  21.106000  10.363000  0.000000
H  22.366000  5.656000  0.000000
H  22.367000  8.165000  0.000000
H  19.852000  1.261000  0.000000
H  17.690000  -0.000000  0.000000
H  21.104000  3.459000  0.000000
H  2.530000  -0.005000  0.000000
H  15.160000  -0.002000  0.000000
H  0.000000  -0.000000  0.000000
H  -2.163000  1.262000  0.000000
H  -3.415000  3.463000  0.000000
H  -4.677000  8.168000  0.000000
H  -4.678000  5.662000  0.000000
H  -2.159000  12.565000  0.000000
H  10.109000  13.837000  0.000000
H  7.585000  13.838000  0.000000
H  5.062000  13.833000  0.000000
H  2.535000  13.828000  0.000000
H  15.163000  13.830000  0.000000
H  0.007000  13.825000  0.000000
H  -3.412000  10.366000  0.000000
H  12.635000  13.835000  0.000000
H  10.108000  -0.010000  0.000000
H  7.583000  -0.012000  0.000000
H  5.058000  -0.011000  0.000000
H  12.631000  -0.009000  0.000000
C  16.391568  10.553000  0.024524
C  16.391568  12.029000  0.012444
C  17.670751  12.724286  0.017171
C  17.670751  8.371221  0.062780
C  17.670751  9.823667  0.051993
C  18.905140  10.553000  0.074574
C  18.905140  12.029000  0.048356
C  17.670751  4.000000  0.051129
C  17.670751  5.453610  0.062348
C  18.905140  6.197900  0.106215
C  18.905140  7.631998  0.104411
C  20.154752  8.371221  0.144375
C  20.154752  9.823667  0.123965
C  18.905140  3.272000  0.084440
C  20.154752  4.000000  0.137928
C  20.154752  5.453610  0.152032
C  21.411000  6.197900  0.211059
C  21.411000  7.631998  0.205969
C  17.670751  1.101000  0.016091
C  18.905140  1.797813  0.061153
C  5.067250  5.453610  0.002836
C  5.067250  4.000000  0.007169
C  3.815571  3.272000  0.003028
C  3.815571  1.797813  -0.027047
C  11.361143  3.272000  -0.050370
C  2.546438  1.101000  -0.025958
C  3.815571  7.631998  0.033131
C  3.815571  6.197900  0.020974
C  11.361143  7.631998  0.161312
C  2.546438  5.453610  0.039853
C  11.361143  6.197900  0.179240
C  2.546438  4.000000  0.022574
C  10.098375  5.453610  0.079370
C  16.391568  3.272000  0.011465
C  1.302141  3.272000  0.024524
C  10.098375  4.000000  0.117696
C  16.391568  1.797813  -0.006676
C  1.302141  1.797813  0.003590
C  8.830644  3.272000  0.009699
C  15.145562  1.101000  -0.039997
C  0.021251  1.101000  0.013888
C  11.361143  12.029000  0.018495
C  2.546438  9.823667  0.059300
C  11.361143  10.553000  0.014119
C  2.546438  8.371221  0.058294
C  10.098375  9.823667  0.145412
C  16.391568  7.631998  0.037721
C  1.302141  7.631998  0.060525
C  10.098375  8.371221  0.125806
C  16.391568  6.197900  0.035548
C  1.302141  6.197900  0.054333
C  15.145562  5.453610  0.006685
C  0.021251  5.453610  0.059310
C  8.830644  7.631998  0.155397
C  8.830644  6.197900  0.162430
C  15.145562  4.000000  -0.005256
C  0.021251  4.000000  0.047057
C  7.582124  5.453610  0.097786
C  13.876357  3.272000  -0.026976
C  -1.214289  3.272000  0.058499
C  7.582124  4.000000  0.130574
C  13.876357  1.797813  -0.048967
C  -1.214289  1.797813  0.043743
C  10.098375  12.724286  0.049249
C  1.302141  10.553000  0.054572
C  8.830644  12.029000  0.041955
C  15.145562  9.823667  0.017479
C  0.021251  9.823667  0.058914
C  8.830644  10.553000  0.091095
C  15.145562  8.371221  0.019130
C  0.021251  8.371221  0.064728
C  7.582124  9.823667  0.195139
C  13.876357  7.631998  -0.009153
C  -1.214289  7.631998  0.072907
C  7.582124  8.371221  0.125177
C  13.876357  6.197900  -0.020367
C  -1.214289  6.197900  0.073701
C  6.330357  7.631998  0.228749
C  12.623562  5.453610  -0.028849
C  -2.463372  5.453610  0.085725
C  6.330357  6.197900  0.209590
C  12.623562  4.000000  -0.024966
C  -2.463372  4.000000  0.080141
C  7.582124  12.724286  0.069548
C  13.876357  10.553000  0.014991
C  -1.214289  10.553000  0.058660
C  6.330357  12.029000  0.052561
C  12.623562  9.823667  0.017846
C  -2.463372  9.823667  0.072185
C  6.330357  10.553000  0.053933
C  12.623562  8.371221  -0.015135
C  -2.463372  8.371221  0.081056
C  5.067250  9.823667  0.066816
C  -3.721000  7.631998  0.096016
C  5.067250  8.371221  0.033306
C  -3.721000  6.197900  0.100117
C  5.067250  12.724286  0.063936
C  3.815571  12.029000  0.060005
C  3.815571  10.553000  0.064952
C  2.546438  12.724286  0.049047
C  1.302141  12.029000  0.047728
C  6.330357  3.272000  -0.027302
C  15.145562  12.724286  0.001949
C  0.021251  12.724286  0.039996
C  13.876357  12.029000  0.010013
C  -1.214289  12.029000  0.047924
C  12.623562  12.724286  0.016968
C  6.330357  1.797813  -0.065554
C  8.830644  1.797813  -0.086081
C  11.361143  1.797813  -0.084716
C  10.098375  1.101000  -0.084638
C  7.582124  1.101000  -0.075266
C  5.067250  1.101000  -0.054967
C  12.623562  1.101000  -0.074973
