142
frame	760
H  17.693000  13.826000  0.000000
H  19.858000  12.564000  0.000000
H  21.106000  10.363000  0.000000
H  22.366000  5.656000  0.000000
H  22.367000  8.165000  0.000000
H  19.852000  1.261000  0.000000
H  17.690000  -0.000000  0.000000
H  21.104000  3.459000  0.000000
H  2.530000  -0.005000  0.000000
H  15.160000  -0.002000  0.000000
H  0.000000  -0.000000  0.000000
H  -2.163000  1.262000  0.000000
H  -3.415000  3.463000  0.000000
H  -4.677000  8.168000  0.000000
H  -4.678000  5.662000  0.000000
H  -2.159000  12.565000  0.000000
H  10.109000  13.837000  0.000000
H  7.585000  13.838000  0.000000
H  5.062000  13.833000  0.000000
H  2.535000  13.828000  0.000000
H  15.163000  13.830000  0.000000
H  0.007000  13.825000  0.000000
H  -3.412000  10.366000  0.000000
H  12.635000  13.835000  0.000000
H  10.108000  -0.010000  0.000000
H  7.583000  -0.012000  0.000000
H  5.058000  -0.011000  0.000000
H  12.631000  -0.009000  0.000000
C  16.391568  10.553000  0.398474
C  16.391568  12.029000  0.189659
C  17.670751  12.724286  0.089049
C  17.670751  8.371221  0.609533
C  17.670751  9.823667  0.423120
C  18.905140  10.553000  0.236557
C  18.905140  12.029000  0.106052
C  17.670751  4.000000  0.423042
C  17.670751  5.453610  0.605805
C  18.905140  6.197900  0.545149
C  18.905140  7.631998  0.560687
C  20.154752  8.371221  0.383639
C  20.154752  9.823667  0.261511
C  18.905140  3.272000  0.241979
C  20.154752  4.000000  0.274104
C  20.154752  5.453610  0.398910
C  21.411000  6.197900  0.357999
C  21.411000  7.631998  0.343685
C  17.670751  1.101000  0.089257
C  18.905140  1.797813  0.126789
C  5.067250  5.453610  0.168564
C  5.067250  4.000000  0.177956
C  3.815571  3.272000  0.331665
C  3.815571  1.797813  0.239532
C  11.361143  3.272000  0.100996
C  2.546438  1.101000  0.107675
C  3.815571  7.631998  0.337073
C  3.815571  6.197900  0.318112
C  11.361143  7.631998  0.222912
C  2.546438  5.453610  0.543268
C  11.361143  6.197900  0.218804
C  2.546438  4.000000  0.429124
C  10.098375  5.453610  0.395643
C  16.391568  3.272000  0.376992
C  1.302141  3.272000  0.384138
C  10.098375  4.000000  0.237364
C  16.391568  1.797813  0.172216
C  1.302141  1.797813  0.179749
C  8.830644  3.272000  0.140363
C  15.145562  1.101000  0.068908
C  0.021251  1.101000  0.086388
C  11.361143  12.029000  0.186050
C  2.546438  9.823667  0.486337
C  11.361143  10.553000  0.185764
C  2.546438  8.371221  0.570143
C  10.098375  9.823667  0.322215
C  16.391568  7.631998  0.623042
C  1.302141  7.631998  0.629732
C  10.098375  8.371221  0.425345
C  16.391568  6.197900  0.600770
C  1.302141  6.197900  0.606725
C  15.145562  5.453610  0.521526
C  0.021251  5.453610  0.586156
C  8.830644  7.631998  0.572859
C  8.830644  6.197900  0.543853
C  15.145562  4.000000  0.403751
C  0.021251  4.000000  0.393451
C  7.582124  5.453610  0.427979
C  13.876357  3.272000  0.303281
C  -1.214289  3.272000  0.203909
C  7.582124  4.000000  0.265500
C  13.876357  1.797813  0.224184
C  -1.214289  1.797813  0.103262
C  10.098375  12.724286  0.069442
C  1.302141  10.553000  0.417835
C  8.830644  12.029000  0.101061
C  15.145562  9.823667  0.422728
C  0.021251  9.823667  0.415232
C  8.830644  10.553000  0.248525
C  15.145562  8.371221  0.530591
C  0.021251  8.371221  0.613827
C  7.582124  9.823667  0.334128
C  13.876357  7.631998  0.303316
C  -1.214289  7.631998  0.525256
C  7.582124  8.371221  0.460706
C  13.876357  6.197900  0.291245
C  -1.214289  6.197900  0.523084
C  6.330357  7.631998  0.281297
C  12.623562  5.453610  0.127092
C  -2.463372  5.453610  0.335592
C  6.330357  6.197900  0.261622
C  12.623562  4.000000  0.144471
C  -2.463372  4.000000  0.205705
C  7.582124  12.724286  0.079422
C  13.876357  10.553000  0.351548
C  -1.214289  10.553000  0.214565
C  6.330357  12.029000  0.209546
C  12.623562  9.823667  0.201251
C  -2.463372  9.823667  0.203073
C  6.330357  10.553000  0.204326
C  12.623562  8.371221  0.146647
C  -2.463372  8.371221  0.336250
C  5.067250  9.823667  0.262963
C  -3.721000  7.631998  0.245216
C  5.067250  8.371221  0.186189
C  -3.721000  6.197900  0.241530
C  5.067250  12.724286  0.236137
C  3.815571  12.029000  0.332225
C  3.815571  10.553000  0.411896
C  2.546438  12.724286  0.173224
C  1.302141  12.029000  0.228316
C  6.330357  3.272000  0.110619
C  15.145562  12.724286  0.119537
C  0.021251  12.724286  0.104396
C  13.876357  12.029000  0.283268
C  -1.214289  12.029000  0.117588
C  12.623562  12.724286  0.177782
C  6.330357  1.797813  0.091590
C  8.830644  1.797813  -0.042817
C  11.361143  1.797813  0.094833
C  10.098375  1.101000  -0.067048
C  7.582124  1.101000  -0.071218
C  5.067250  1.101000  0.104006
C  12.623562  1.101000  0.118054
