142
frame	427
H  17.693000  13.826000  0.000000
H  19.858000  12.564000  0.000000
H  21.106000  10.363000  0.000000
H  22.366000  5.656000  0.000000
H  22.367000  8.165000  0.000000
H  19.852000  1.261000  0.000000
H  17.690000  -0.000000  0.000000
H  21.104000  3.459000  0.000000
H  2.530000  -0.005000  0.000000
H  15.160000  -0.002000  0.000000
H  0.000000  -0.000000  0.000000
H  -2.163000  1.262000  0.000000
H  -3.415000  3.463000  0.000000
H  -4.677000  8.168000  0.000000
H  -4.678000  5.662000  0.000000
H  -2.159000  12.565000  0.000000
H  10.109000  13.837000  0.000000
H  7.585000  13.838000  0.000000
H  5.062000  13.833000  0.000000
H  2.535000  13.828000  0.000000
H  15.163000  13.830000  0.000000
H  0.007000  13.825000  0.000000
H  -3.412000  10.366000  0.000000
H  12.635000  13.835000  0.000000
H  10.108000  -0.010000  0.000000
H  7.583000  -0.012000  0.000000
H  5.058000  -0.011000  0.000000
H  12.631000  -0.009000  0.000000
C  16.391568  10.553000  -0.529462
C  16.391568  12.029000  -0.296539
C  17.670751  12.724286  -0.134261
C  17.670751  8.371221  -0.400617
C  17.670751  9.823667  -0.394075
C  18.905140  10.553000  -0.240659
C  18.905140  12.029000  -0.183702
C  17.670751  4.000000  -0.394104
C  17.670751  5.453610  -0.387464
C  18.905140  6.197900  -0.248889
C  18.905140  7.631998  -0.245416
C  20.154752  8.371221  -0.010025
C  20.154752  9.823667  -0.052844
C  18.905140  3.272000  -0.240643
C  20.154752  4.000000  -0.042988
C  20.154752  5.453610  0.012175
C  21.411000  6.197900  0.259419
C  21.411000  7.631998  0.252024
C  17.670751  1.101000  -0.134303
C  18.905140  1.797813  -0.175362
C  5.067250  5.453610  -0.314553
C  5.067250  4.000000  -0.262647
C  3.815571  3.272000  -0.559020
C  3.815571  1.797813  -0.497995
C  11.361143  3.272000  -0.169698
C  2.546438  1.101000  -0.364038
C  3.815571  7.631998  -0.414307
C  3.815571  6.197900  -0.425359
C  11.361143  7.631998  -0.323571
C  2.546438  5.453610  -0.718302
C  11.361143  6.197900  -0.342451
C  2.546438  4.000000  -0.734876
C  10.098375  5.453610  -0.416518
C  16.391568  3.272000  -0.545718
C  1.302141  3.272000  -0.588325
C  10.098375  4.000000  -0.173454
C  16.391568  1.797813  -0.333206
C  1.302141  1.797813  -0.344551
C  8.830644  3.272000  -0.153595
C  15.145562  1.101000  -0.348275
C  0.021251  1.101000  -0.158826
C  11.361143  12.029000  -0.046563
C  2.546438  9.823667  -0.705093
C  11.361143  10.553000  -0.089488
C  2.546438  8.371221  -0.703383
C  10.098375  9.823667  -0.111378
C  16.391568  7.631998  -0.605674
C  1.302141  7.631998  -0.659502
C  10.098375  8.371221  -0.370947
C  16.391568  6.197900  -0.602058
C  1.302141  6.197900  -0.671420
C  15.145562  5.453610  -0.667165
C  0.021251  5.453610  -0.452405
C  8.830644  7.631998  -0.370734
C  8.830644  6.197900  -0.385544
C  15.145562  4.000000  -0.691543
C  0.021251  4.000000  -0.437389
C  7.582124  5.453610  -0.408821
C  13.876357  3.272000  -0.544722
C  -1.214289  3.272000  -0.273716
C  7.582124  4.000000  -0.167769
C  13.876357  1.797813  -0.494888
C  -1.214289  1.797813  -0.219632
C  10.098375  12.724286  0.131230
C  1.302141  10.553000  -0.556080
C  8.830644  12.029000  0.084855
C  15.145562  9.823667  -0.669629
C  0.021251  9.823667  -0.423786
C  8.830644  10.553000  -0.069407
C  15.145562  8.371221  -0.646053
C  0.021251  8.371221  -0.462892
C  7.582124  9.823667  -0.103106
C  13.876357  7.631998  -0.363828
C  -1.214289  7.631998  -0.341399
C  7.582124  8.371221  -0.359186
C  13.876357  6.197900  -0.378842
C  -1.214289  6.197900  -0.321537
C  6.330357  7.631998  -0.324042
C  12.623562  5.453610  -0.291334
C  -2.463372  5.453610  -0.098825
C  6.330357  6.197900  -0.342024
C  12.623562  4.000000  -0.243721
C  -2.463372  4.000000  -0.123283
C  7.582124  12.724286  0.131803
C  13.876357  10.553000  -0.503349
C  -1.214289  10.553000  -0.270621
C  6.330357  12.029000  -0.036219
C  12.623562  9.823667  -0.207284
C  -2.463372  9.823667  -0.126355
C  6.330357  10.553000  -0.099386
C  12.623562  8.371221  -0.257925
C  -2.463372  8.371221  -0.103381
C  5.067250  9.823667  -0.216102
C  -3.721000  7.631998  0.130986
C  5.067250  8.371221  -0.287869
C  -3.721000  6.197900  0.136164
C  5.067250  12.724286  -0.220835
C  3.815571  12.029000  -0.422467
C  3.815571  10.553000  -0.516459
C  2.546438  12.724286  -0.281472
C  1.302141  12.029000  -0.296596
C  6.330357  3.272000  -0.183413
C  15.145562  12.724286  -0.298997
C  0.021251  12.724286  -0.135772
C  13.876357  12.029000  -0.441655
C  -1.214289  12.029000  -0.216090
C  12.623562  12.724286  -0.252239
C  6.330357  1.797813  -0.149376
C  8.830644  1.797813  -0.028386
C  11.361143  1.797813  -0.146733
C  10.098375  1.101000  -0.010374
C  7.582124  1.101000  0.002265
C  5.067250  1.101000  -0.343400
C  12.623562  1.101000  -0.355155
