142
frame	826
H  17.693000  13.826000  0.000000
H  19.858000  12.564000  0.000000
H  21.106000  10.363000  0.000000
H  22.366000  5.656000  0.000000
H  22.367000  8.165000  0.000000
H  19.852000  1.261000  0.000000
H  17.690000  -0.000000  0.000000
H  21.104000  3.459000  0.000000
H  2.530000  -0.005000  0.000000
H  15.160000  -0.002000  0.000000
H  0.000000  -0.000000  0.000000
H  -2.163000  1.262000  0.000000
H  -3.415000  3.463000  0.000000
H  -4.677000  8.168000  0.000000
H  -4.678000  5.662000  0.000000
H  -2.159000  12.565000  0.000000
H  10.109000  13.837000  0.000000
H  7.585000  13.838000  0.000000
H  5.062000  13.833000  0.000000
H  2.535000  13.828000  0.000000
H  15.163000  13.830000  0.000000
H  0.007000  13.825000  0.000000
H  -3.412000  10.366000  0.000000
H  12.635000  13.835000  0.000000
H  10.108000  -0.010000  0.000000
H  7.583000  -0.012000  0.000000
H  5.058000  -0.011000  0.000000
H  12.631000  -0.009000  0.000000
C  16.391568  10.553000  0.093543
C  16.391568  12.029000  -0.015677
C  17.670751  12.724286  0.127225
C  17.670751  8.371221  0.178021
C  17.670751  9.823667  0.150982
C  18.905140  10.553000  0.190692
C  18.905140  12.029000  0.190009
C  17.670751  4.000000  0.149470
C  17.670751  5.453610  0.160506
C  18.905140  6.197900  0.239010
C  18.905140  7.631998  0.231467
C  20.154752  8.371221  0.238476
C  20.154752  9.823667  0.226899
C  18.905140  3.272000  0.198820
C  20.154752  4.000000  0.237250
C  20.154752  5.453610  0.249829
C  21.411000  6.197900  0.121825
C  21.411000  7.631998  0.112612
C  17.670751  1.101000  0.119365
C  18.905140  1.797813  0.187591
C  5.067250  5.453610  0.768248
C  5.067250  4.000000  0.505980
C  3.815571  3.272000  0.386351
C  3.815571  1.797813  0.125346
C  11.361143  3.272000  0.311605
C  2.546438  1.101000  -0.102180
C  3.815571  7.631998  0.941202
C  3.815571  6.197900  0.945030
C  11.361143  7.631998  0.703538
C  2.546438  5.453610  0.625235
C  11.361143  6.197900  0.700607
C  2.546438  4.000000  0.447137
C  10.098375  5.453610  0.445051
C  16.391568  3.272000  0.089533
C  1.302141  3.272000  0.064206
C  10.098375  4.000000  0.331028
C  16.391568  1.797813  -0.055352
C  1.302141  1.797813  -0.067428
C  8.830644  3.272000  0.276617
C  15.145562  1.101000  -0.099882
C  0.021251  1.101000  0.112953
C  11.361143  12.029000  0.274784
C  2.546438  9.823667  0.489638
C  11.361143  10.553000  0.403259
C  2.546438  8.371221  0.643839
C  10.098375  9.823667  0.396556
C  16.391568  7.631998  0.323359
C  1.302141  7.631998  0.357366
C  10.098375  8.371221  0.471100
C  16.391568  6.197900  0.319515
C  1.302141  6.197900  0.346683
C  15.145562  5.453610  0.586429
C  0.021251  5.453610  0.170218
C  8.830644  7.631998  0.394872
C  8.830644  6.197900  0.380298
C  15.145562  4.000000  0.436465
C  0.021251  4.000000  0.145267
C  7.582124  5.453610  0.435529
C  13.876357  3.272000  0.363186
C  -1.214289  3.272000  0.189534
C  7.582124  4.000000  0.343641
C  13.876357  1.797813  0.108482
C  -1.214289  1.797813  0.183255
C  10.098375  12.724286  0.280490
C  1.302141  10.553000  0.099553
C  8.830644  12.029000  0.354500
C  15.145562  9.823667  0.460250
C  0.021251  9.823667  0.162683
C  8.830644  10.553000  0.357449
C  15.145562  8.371221  0.608084
C  0.021251  8.371221  0.166853
C  7.582124  9.823667  0.417261
C  13.876357  7.631998  0.918361
C  -1.214289  7.631998  0.226145
C  7.582124  8.371221  0.490149
C  13.876357  6.197900  0.914667
C  -1.214289  6.197900  0.218926
C  6.330357  7.631998  0.727291
C  12.623562  5.453610  0.740957
C  -2.463372  5.453610  0.187533
C  6.330357  6.197900  0.707209
C  12.623562  4.000000  0.482787
C  -2.463372  4.000000  0.198218
C  7.582124  12.724286  0.305093
C  13.876357  10.553000  0.427807
C  -1.214289  10.553000  0.196440
C  6.330357  12.029000  0.305846
C  12.623562  9.823667  0.547373
C  -2.463372  9.823667  0.185077
C  6.330357  10.553000  0.431592
C  12.623562  8.371221  0.764630
C  -2.463372  8.371221  0.173612
C  5.067250  9.823667  0.569773
C  -3.721000  7.631998  -0.004487
C  5.067250  8.371221  0.801949
C  -3.721000  6.197900  0.005484
C  5.067250  12.724286  0.201600
C  3.815571  12.029000  0.219548
C  3.815571  10.553000  0.462836
C  2.546438  12.724286  -0.021618
C  1.302141  12.029000  -0.014691
C  6.330357  3.272000  0.347028
C  15.145562  12.724286  -0.040325
C  0.021251  12.724286  0.171760
C  13.876357  12.029000  0.174935
C  -1.214289  12.029000  0.198497
C  12.623562  12.724286  0.159149
C  6.330357  1.797813  0.185515
C  8.830644  1.797813  0.230849
C  11.361143  1.797813  0.169606
C  10.098375  1.101000  0.136327
C  7.582124  1.101000  0.171004
C  5.067250  1.101000  0.086035
C  12.623562  1.101000  0.068569
