142
frame	170
H  17.693000  13.826000  0.000000
H  19.858000  12.564000  0.000000
H  21.106000  10.363000  0.000000
H  22.366000  5.656000  0.000000
H  22.367000  8.165000  0.000000
H  19.852000  1.261000  0.000000
H  17.690000  -0.000000  0.000000
H  21.104000  3.459000  0.000000
H  2.530000  -0.005000  0.000000
H  15.160000  -0.002000  0.000000
H  0.000000  -0.000000  0.000000
H  -2.163000  1.262000  0.000000
H  -3.415000  3.463000  0.000000
H  -4.677000  8.168000  0.000000
H  -4.678000  5.662000  0.000000
H  -2.159000  12.565000  0.000000
H  10.109000  13.837000  0.000000
H  7.585000  13.838000  0.000000
H  5.062000  13.833000  0.000000
H  2.535000  13.828000  0.000000
H  15.163000  13.830000  0.000000
H  0.007000  13.825000  0.000000
H  -3.412000  10.366000  0.000000
H  12.635000  13.835000  0.000000
H  10.108000  -0.010000  0.000000
H  7.583000  -0.012000  0.000000
H  5.058000  -0.011000  0.000000
H  12.631000  -0.009000  0.000000
C  16.391568  10.553000  0.007416
C  16.391568  12.029000  0.020469
C  17.670751  12.724286  0.208665
C  17.670751  8.371221  0.015901
C  17.670751  9.823667  0.127313
C  18.905140  10.553000  0.407372
C  18.905140  12.029000  0.411159
C  17.670751  4.000000  0.134606
C  17.670751  5.453610  0.024216
C  18.905140  6.197900  0.203151
C  18.905140  7.631998  0.210335
C  20.154752  8.371221  0.310206
C  20.154752  9.823667  0.360075
C  18.905140  3.272000  0.426863
C  20.154752  4.000000  0.377262
C  20.154752  5.453610  0.312711
C  21.411000  6.197900  0.258668
C  21.411000  7.631998  0.247758
C  17.670751  1.101000  0.199303
C  18.905140  1.797813  0.407183
C  5.067250  5.453610  -0.444658
C  5.067250  4.000000  -0.544114
C  3.815571  3.272000  -0.350296
C  3.815571  1.797813  -0.330744
C  11.361143  3.272000  -0.686538
C  2.546438  1.101000  -0.216502
C  3.815571  7.631998  -0.344455
C  3.815571  6.197900  -0.343338
C  11.361143  7.631998  -0.400309
C  2.546438  5.453610  -0.106850
C  11.361143  6.197900  -0.428002
C  2.546438  4.000000  -0.104766
C  10.098375  5.453610  -0.611336
C  16.391568  3.272000  -0.004645
C  1.302141  3.272000  -0.018370
C  10.098375  4.000000  -0.786779
C  16.391568  1.797813  0.000488
C  1.302141  1.797813  -0.002590
C  8.830644  3.272000  -0.720297
C  15.145562  1.101000  -0.210409
C  0.021251  1.101000  0.202302
C  11.361143  12.029000  -0.326379
C  2.546438  9.823667  -0.065377
C  11.361143  10.553000  -0.629175
C  2.546438  8.371221  -0.099871
C  10.098375  9.823667  -0.726712
C  16.391568  7.631998  -0.059774
C  1.302141  7.631998  -0.047537
C  10.098375  8.371221  -0.576559
C  16.391568  6.197900  -0.046898
C  1.302141  6.197900  -0.062695
C  15.145562  5.453610  -0.122554
C  0.021251  5.453610  -0.005678
C  8.830644  7.631998  -0.579174
C  8.830644  6.197900  -0.614106
C  15.145562  4.000000  -0.102872
C  0.021251  4.000000  0.113168
C  7.582124  5.453610  -0.601883
C  13.876357  3.272000  -0.360447
C  -1.214289  3.272000  0.406160
C  7.582124  4.000000  -0.779836
C  13.876357  1.797813  -0.330685
C  -1.214289  1.797813  0.402221
C  10.098375  12.724286  -0.208234
C  1.302141  10.553000  0.012717
C  8.830644  12.029000  -0.330596
C  15.145562  9.823667  -0.083461
C  0.021251  9.823667  0.125558
C  8.830644  10.553000  -0.650775
C  15.145562  8.371221  -0.108574
C  0.021251  8.371221  0.007637
C  7.582124  9.823667  -0.722557
C  13.876357  7.631998  -0.356901
C  -1.214289  7.631998  0.165132
C  7.582124  8.371221  -0.570978
C  13.876357  6.197900  -0.362448
C  -1.214289  6.197900  0.166915
C  6.330357  7.631998  -0.400061
C  12.623562  5.453610  -0.451495
C  -2.463372  5.453610  0.256222
C  6.330357  6.197900  -0.410906
C  12.623562  4.000000  -0.548031
C  -2.463372  4.000000  0.328236
C  7.582124  12.724286  -0.190854
C  13.876357  10.553000  -0.301080
C  -1.214289  10.553000  0.406574
C  6.330357  12.029000  -0.305919
C  12.623562  9.823667  -0.503171
C  -2.463372  9.823667  0.317817
C  6.330357  10.553000  -0.604570
C  12.623562  8.371221  -0.436442
C  -2.463372  8.371221  0.247226
C  5.067250  9.823667  -0.489066
C  -3.721000  7.631998  0.150446
C  5.067250  8.371221  -0.415684
C  -3.721000  6.197900  0.152826
C  5.067250  12.724286  -0.158016
C  3.815571  12.029000  -0.242867
C  3.815571  10.553000  -0.290327
C  2.546438  12.724286  -0.130785
C  1.302141  12.029000  0.051506
C  6.330357  3.272000  -0.690985
C  15.145562  12.724286  -0.167881
C  0.021251  12.724286  0.225856
C  13.876357  12.029000  -0.278952
C  -1.214289  12.029000  0.396174
C  12.623562  12.724286  -0.199032
C  6.330357  1.797813  -0.418949
C  8.830644  1.797813  -0.445909
C  11.361143  1.797813  -0.421706
C  10.098375  1.101000  -0.340642
C  7.582124  1.101000  -0.327304
C  5.067250  1.101000  -0.273543
C  12.623562  1.101000  -0.284298
