142
frame	115
H  17.693000  13.826000  0.000000
H  19.858000  12.564000  0.000000
H  21.106000  10.363000  0.000000
H  22.366000  5.656000  0.000000
H  22.367000  8.165000  0.000000
H  19.852000  1.261000  0.000000
H  17.690000  -0.000000  0.000000
H  21.104000  3.459000  0.000000
H  2.530000  -0.005000  0.000000
H  15.160000  -0.002000  0.000000
H  0.000000  -0.000000  0.000000
H  -2.163000  1.262000  0.000000
H  -3.415000  3.463000  0.000000
H  -4.677000  8.168000  0.000000
H  -4.678000  5.662000  0.000000
H  -2.159000  12.565000  0.000000
H  10.109000  13.837000  0.000000
H  7.585000  13.838000  0.000000
H  5.062000  13.833000  0.000000
H  2.535000  13.828000  0.000000
H  15.163000  13.830000  0.000000
H  0.007000  13.825000  0.000000
H  -3.412000  10.366000  0.000000
H  12.635000  13.835000  0.000000
H  10.108000  -0.010000  0.000000
H  7.583000  -0.012000  0.000000
H  5.058000  -0.011000  0.000000
H  12.631000  -0.009000  0.000000
C  16.391568  10.553000  0.203327
C  16.391568  12.029000  0.091371
C  17.670751  12.724286  -0.087770
C  17.670751  8.371221  0.177293
C  17.670751  9.823667  0.113833
C  18.905140  10.553000  -0.019228
C  18.905140  12.029000  -0.066436
C  17.670751  4.000000  0.111283
C  17.670751  5.453610  0.172873
C  18.905140  6.197900  0.090421
C  18.905140  7.631998  0.090638
C  20.154752  8.371221  0.088882
C  20.154752  9.823667  0.051994
C  18.905140  3.272000  -0.007036
C  20.154752  4.000000  0.065360
C  20.154752  5.453610  0.097807
C  21.411000  6.197900  0.192496
C  21.411000  7.631998  0.185412
C  17.670751  1.101000  -0.082801
C  18.905140  1.797813  -0.060392
C  5.067250  5.453610  -0.385708
C  5.067250  4.000000  -0.323987
C  3.815571  3.272000  -0.038861
C  3.815571  1.797813  0.088327
C  11.361143  3.272000  -0.365102
C  2.546438  1.101000  0.137162
C  3.815571  7.631998  -0.286266
C  3.815571  6.197900  -0.291945
C  11.361143  7.631998  -0.444381
C  2.546438  5.453610  0.037408
C  11.361143  6.197900  -0.456025
C  2.546438  4.000000  0.106805
C  10.098375  5.453610  -0.603153
C  16.391568  3.272000  0.181225
C  1.302141  3.272000  0.201923
C  10.098375  4.000000  -0.477998
C  16.391568  1.797813  0.086393
C  1.302141  1.797813  0.096478
C  8.830644  3.272000  -0.355272
C  15.145562  1.101000  0.122605
C  0.021251  1.101000  -0.090519
C  11.361143  12.029000  -0.212944
C  2.546438  9.823667  0.140773
C  11.361143  10.553000  -0.320096
C  2.546438  8.371221  0.054589
C  10.098375  9.823667  -0.424307
C  16.391568  7.631998  0.220258
C  1.302141  7.631998  0.243155
C  10.098375  8.371221  -0.565883
C  16.391568  6.197900  0.223217
C  1.302141  6.197900  0.234216
C  15.145562  5.453610  0.019778
C  0.021251  5.453610  0.179595
C  8.830644  7.631998  -0.718095
C  8.830644  6.197900  -0.740552
C  15.145562  4.000000  0.094237
C  0.021251  4.000000  0.115409
C  7.582124  5.453610  -0.583025
C  13.876357  3.272000  -0.053356
C  -1.214289  3.272000  -0.039695
C  7.582124  4.000000  -0.465681
C  13.876357  1.797813  0.072441
C  -1.214289  1.797813  -0.085774
C  10.098375  12.724286  -0.226331
C  1.302141  10.553000  0.230877
C  8.830644  12.029000  -0.352433
C  15.145562  9.823667  0.121959
C  0.021251  9.823667  0.130756
C  8.830644  10.553000  -0.288275
C  15.145562  8.371221  0.031968
C  0.021251  8.371221  0.186879
C  7.582124  9.823667  -0.414929
C  13.876357  7.631998  -0.293692
C  -1.214289  7.631998  0.060710
C  7.582124  8.371221  -0.567730
C  13.876357  6.197900  -0.319623
C  -1.214289  6.197900  0.060557
C  6.330357  7.631998  -0.419469
C  12.623562  5.453610  -0.398186
C  -2.463372  5.453610  0.027498
C  6.330357  6.197900  -0.441921
C  12.623562  4.000000  -0.341339
C  -2.463372  4.000000  0.001017
C  7.582124  12.724286  -0.211598
C  13.876357  10.553000  -0.018176
C  -1.214289  10.553000  -0.033029
C  6.330357  12.029000  -0.196393
C  12.623562  9.823667  -0.305432
C  -2.463372  9.823667  -0.003393
C  6.330357  10.553000  -0.295487
C  12.623562  8.371221  -0.388942
C  -2.463372  8.371221  0.024497
C  5.067250  9.823667  -0.264348
C  -3.721000  7.631998  0.076731
C  5.067250  8.371221  -0.359208
C  -3.721000  6.197900  0.079012
C  5.067250  12.724286  0.110608
C  3.815571  12.029000  0.157281
C  3.815571  10.553000  0.023941
C  2.546438  12.724286  0.205204
C  1.302141  12.029000  0.145446
C  6.330357  3.272000  -0.363434
C  15.145562  12.724286  0.163870
C  0.021251  12.724286  -0.057534
C  13.876357  12.029000  0.136505
C  -1.214289  12.029000  -0.077725
C  12.623562  12.724286  0.075761
C  6.330357  1.797813  -0.313933
C  8.830644  1.797813  -0.481499
C  11.361143  1.797813  -0.323498
C  10.098375  1.101000  -0.370348
C  7.582124  1.101000  -0.359476
C  5.067250  1.101000  -0.002904
C  12.623562  1.101000  -0.027183
