142
frame	800
H  17.693000  13.826000  0.000000
H  19.858000  12.564000  0.000000
H  21.106000  10.363000  0.000000
H  22.366000  5.656000  0.000000
H  22.367000  8.165000  0.000000
H  19.852000  1.261000  0.000000
H  17.690000  -0.000000  0.000000
H  21.104000  3.459000  0.000000
H  2.530000  -0.005000  0.000000
H  15.160000  -0.002000  0.000000
H  0.000000  -0.000000  0.000000
H  -2.163000  1.262000  0.000000
H  -3.415000  3.463000  0.000000
H  -4.677000  8.168000  0.000000
H  -4.678000  5.662000  0.000000
H  -2.159000  12.565000  0.000000
H  10.109000  13.837000  0.000000
H  7.585000  13.838000  0.000000
H  5.062000  13.833000  0.000000
H  2.535000  13.828000  0.000000
H  15.163000  13.830000  0.000000
H  0.007000  13.825000  0.000000
H  -3.412000  10.366000  0.000000
H  12.635000  13.835000  0.000000
H  10.108000  -0.010000  0.000000
H  7.583000  -0.012000  0.000000
H  5.058000  -0.011000  0.000000
H  12.631000  -0.009000  0.000000
C  16.391568  10.553000  0.267964
C  16.391568  12.029000  0.146097
C  17.670751  12.724286  0.003579
C  17.670751  8.371221  0.408896
C  17.670751  9.823667  0.186298
C  18.905140  10.553000  0.092665
C  18.905140  12.029000  0.030694
C  17.670751  4.000000  0.182164
C  17.670751  5.453610  0.429285
C  18.905140  6.197900  0.392711
C  18.905140  7.631998  0.401686
C  20.154752  8.371221  0.243433
C  20.154752  9.823667  0.151080
C  18.905140  3.272000  0.094503
C  20.154752  4.000000  0.162837
C  20.154752  5.453610  0.249289
C  21.411000  6.197900  0.253447
C  21.411000  7.631998  0.253465
C  17.670751  1.101000  -0.015271
C  18.905140  1.797813  0.039219
C  5.067250  5.453610  0.667205
C  5.067250  4.000000  0.476031
C  3.815571  3.272000  0.308962
C  3.815571  1.797813  0.065452
C  11.361143  3.272000  0.276532
C  2.546438  1.101000  0.030993
C  3.815571  7.631998  0.665307
C  3.815571  6.197900  0.639569
C  11.361143  7.631998  0.608816
C  2.546438  5.453610  0.591808
C  11.361143  6.197900  0.586615
C  2.546438  4.000000  0.377545
C  10.098375  5.453610  0.350973
C  16.391568  3.272000  0.243988
C  1.302141  3.272000  0.249173
C  10.098375  4.000000  0.351674
C  16.391568  1.797813  0.126198
C  1.302141  1.797813  0.117761
C  8.830644  3.272000  0.267974
C  15.145562  1.101000  0.030107
C  0.021251  1.101000  -0.023860
C  11.361143  12.029000  0.200586
C  2.546438  9.823667  0.421636
C  11.361143  10.553000  0.351145
C  2.546438  8.371221  0.607923
C  10.098375  9.823667  0.409746
C  16.391568  7.631998  0.566855
C  1.302141  7.631998  0.590647
C  10.098375  8.371221  0.384434
C  16.391568  6.197900  0.564844
C  1.302141  6.197900  0.584577
C  15.145562  5.453610  0.569610
C  0.021251  5.453610  0.423521
C  8.830644  7.631998  0.280636
C  8.830644  6.197900  0.247396
C  15.145562  4.000000  0.371764
C  0.021251  4.000000  0.174878
C  7.582124  5.453610  0.367948
C  13.876357  3.272000  0.306712
C  -1.214289  3.272000  0.075108
C  7.582124  4.000000  0.348841
C  13.876357  1.797813  0.057538
C  -1.214289  1.797813  0.022155
C  10.098375  12.724286  0.131889
C  1.302141  10.553000  0.297342
C  8.830644  12.029000  0.241081
C  15.145562  9.823667  0.395751
C  0.021251  9.823667  0.193250
C  8.830644  10.553000  0.356265
C  15.145562  8.371221  0.572705
C  0.021251  8.371221  0.431224
C  7.582124  9.823667  0.429888
C  13.876357  7.631998  0.607525
C  -1.214289  7.631998  0.364057
C  7.582124  8.371221  0.406989
C  13.876357  6.197900  0.596177
C  -1.214289  6.197900  0.368363
C  6.330357  7.631998  0.636518
C  12.623562  5.453610  0.630862
C  -2.463372  5.453610  0.193423
C  6.330357  6.197900  0.615310
C  12.623562  4.000000  0.450657
C  -2.463372  4.000000  0.108919
C  7.582124  12.724286  0.157677
C  13.876357  10.553000  0.354219
C  -1.214289  10.553000  0.076634
C  6.330357  12.029000  0.248355
C  12.623562  9.823667  0.491609
C  -2.463372  9.823667  0.103025
C  6.330357  10.553000  0.388524
C  12.623562  8.371221  0.654650
C  -2.463372  8.371221  0.187469
C  5.067250  9.823667  0.539952
C  -3.721000  7.631998  0.154461
C  5.067250  8.371221  0.693099
C  -3.721000  6.197900  0.151387
C  5.067250  12.724286  0.122675
C  3.815571  12.029000  0.158629
C  3.815571  10.553000  0.372532
C  2.546438  12.724286  0.121985
C  1.302141  12.029000  0.188323
C  6.330357  3.272000  0.302211
C  15.145562  12.724286  0.079708
C  0.021251  12.724286  -0.001571
C  13.876357  12.029000  0.138384
C  -1.214289  12.029000  0.036121
C  12.623562  12.724286  0.089220
C  6.330357  1.797813  0.126177
C  8.830644  1.797813  0.118776
C  11.361143  1.797813  0.077469
C  10.098375  1.101000  -0.008031
C  7.582124  1.101000  0.004819
C  5.067250  1.101000  -0.005534
C  12.623562  1.101000  -0.039908
