142
frame	535
H  17.693000  13.826000  0.000000
H  19.858000  12.564000  0.000000
H  21.106000  10.363000  0.000000
H  22.366000  5.656000  0.000000
H  22.367000  8.165000  0.000000
H  19.852000  1.261000  0.000000
H  17.690000  -0.000000  0.000000
H  21.104000  3.459000  0.000000
H  2.530000  -0.005000  0.000000
H  15.160000  -0.002000  0.000000
H  0.000000  -0.000000  0.000000
H  -2.163000  1.262000  0.000000
H  -3.415000  3.463000  0.000000
H  -4.677000  8.168000  0.000000
H  -4.678000  5.662000  0.000000
H  -2.159000  12.565000  0.000000
H  10.109000  13.837000  0.000000
H  7.585000  13.838000  0.000000
H  5.062000  13.833000  0.000000
H  2.535000  13.828000  0.000000
H  15.163000  13.830000  0.000000
H  0.007000  13.825000  0.000000
H  -3.412000  10.366000  0.000000
H  12.635000  13.835000  0.000000
H  10.108000  -0.010000  0.000000
H  7.583000  -0.012000  0.000000
H  5.058000  -0.011000  0.000000
H  12.631000  -0.009000  0.000000
C  16.391568  10.553000  0.085210
C  16.391568  12.029000  0.081294
C  17.670751  12.724286  0.067490
C  17.670751  8.371221  -0.182803
C  17.670751  9.823667  0.017940
C  18.905140  10.553000  0.076460
C  18.905140  12.029000  0.111975
C  17.670751  4.000000  0.011754
C  17.670751  5.453610  -0.190084
C  18.905140  6.197900  -0.151443
C  18.905140  7.631998  -0.155381
C  20.154752  8.371221  -0.010554
C  20.154752  9.823667  0.081984
C  18.905140  3.272000  0.069664
C  20.154752  4.000000  0.107047
C  20.154752  5.453610  0.001813
C  21.411000  6.197900  0.158003
C  21.411000  7.631998  0.141917
C  17.670751  1.101000  0.047988
C  18.905140  1.797813  0.106893
C  5.067250  5.453610  -0.296970
C  5.067250  4.000000  -0.395071
C  3.815571  3.272000  -0.130625
C  3.815571  1.797813  -0.040249
C  11.361143  3.272000  -0.267418
C  2.546438  1.101000  -0.049323
C  3.815571  7.631998  -0.309524
C  3.815571  6.197900  -0.293566
C  11.361143  7.631998  -0.097363
C  2.546438  5.453610  -0.194628
C  11.361143  6.197900  -0.085426
C  2.546438  4.000000  -0.014852
C  10.098375  5.453610  -0.116405
C  16.391568  3.272000  0.075314
C  1.302141  3.272000  0.050987
C  10.098375  4.000000  -0.208081
C  16.391568  1.797813  0.056581
C  1.302141  1.797813  0.051968
C  8.830644  3.272000  -0.219207
C  15.145562  1.101000  -0.037305
C  0.021251  1.101000  0.030802
C  11.361143  12.029000  -0.029488
C  2.546438  9.823667  0.010855
C  11.361143  10.553000  -0.210942
C  2.546438  8.371221  -0.185563
C  10.098375  9.823667  -0.157695
C  16.391568  7.631998  -0.257931
C  1.302141  7.631998  -0.271989
C  10.098375  8.371221  -0.113813
C  16.391568  6.197900  -0.254177
C  1.302141  6.197900  -0.275291
C  15.145562  5.453610  -0.172437
C  0.021251  5.453610  -0.208745
C  8.830644  7.631998  -0.268634
C  8.830644  6.197900  -0.273624
C  15.145562  4.000000  -0.003199
C  0.021251  4.000000  -0.006928
C  7.582124  5.453610  -0.120983
C  13.876357  3.272000  -0.138004
C  -1.214289  3.272000  0.044219
C  7.582124  4.000000  -0.215673
C  13.876357  1.797813  -0.032211
C  -1.214289  1.797813  0.078288
C  10.098375  12.724286  -0.096652
C  1.302141  10.553000  0.078732
C  8.830644  12.029000  -0.213556
C  15.145562  9.823667  0.011246
C  0.021251  9.823667  0.000087
C  8.830644  10.553000  -0.148252
C  15.145562  8.371221  -0.174576
C  0.021251  8.371221  -0.200237
C  7.582124  9.823667  -0.175922
C  13.876357  7.631998  -0.272505
C  -1.214289  7.631998  -0.187881
C  7.582124  8.371221  -0.106486
C  13.876357  6.197900  -0.274033
C  -1.214289  6.197900  -0.199960
C  6.330357  7.631998  -0.099663
C  12.623562  5.453610  -0.270341
C  -2.463372  5.453610  -0.083562
C  6.330357  6.197900  -0.107432
C  12.623562  4.000000  -0.378943
C  -2.463372  4.000000  0.034748
C  7.582124  12.724286  -0.069015
C  13.876357  10.553000  -0.089685
C  -1.214289  10.553000  0.032008
C  6.330357  12.029000  -0.026345
C  12.623562  9.823667  -0.333464
C  -2.463372  9.823667  0.019420
C  6.330357  10.553000  -0.226147
C  12.623562  8.371221  -0.264080
C  -2.463372  8.371221  -0.093952
C  5.067250  9.823667  -0.350827
C  -3.721000  7.631998  0.014147
C  5.067250  8.371221  -0.288937
C  -3.721000  6.197900  0.013076
C  5.067250  12.724286  0.066603
C  3.815571  12.029000  0.046834
C  3.815571  10.553000  -0.077405
C  2.546438  12.724286  0.020344
C  1.302141  12.029000  0.090770
C  6.330357  3.272000  -0.288982
C  15.145562  12.724286  0.006466
C  0.021251  12.724286  0.062912
C  13.876357  12.029000  0.023148
C  -1.214289  12.029000  0.078021
C  12.623562  12.724286  0.029337
C  6.330357  1.797813  -0.115849
C  8.830644  1.797813  -0.339835
C  11.361143  1.797813  -0.119840
C  10.098375  1.101000  -0.211347
C  7.582124  1.101000  -0.205746
C  5.067250  1.101000  -0.038557
C  12.623562  1.101000  -0.056791
