142
frame	467
H  17.693000  13.826000  0.000000
H  19.858000  12.564000  0.000000
H  21.106000  10.363000  0.000000
H  22.366000  5.656000  0.000000
H  22.367000  8.165000  0.000000
H  19.852000  1.261000  0.000000
H  17.690000  -0.000000  0.000000
H  21.104000  3.459000  0.000000
H  2.530000  -0.005000  0.000000
H  15.160000  -0.002000  0.000000
H  0.000000  -0.000000  0.000000
H  -2.163000  1.262000  0.000000
H  -3.415000  3.463000  0.000000
H  -4.677000  8.168000  0.000000
H  -4.678000  5.662000  0.000000
H  -2.159000  12.565000  0.000000
H  10.109000  13.837000  0.000000
H  7.585000  13.838000  0.000000
H  5.062000  13.833000  0.000000
H  2.535000  13.828000  0.000000
H  15.163000  13.830000  0.000000
H  0.007000  13.825000  0.000000
H  -3.412000  10.366000  0.000000
H  12.635000  13.835000  0.000000
H  10.108000  -0.010000  0.000000
H  7.583000  -0.012000  0.000000
H  5.058000  -0.011000  0.000000
H  12.631000  -0.009000  0.000000
C  16.391568  10.553000  -0.441475
C  16.391568  12.029000  -0.368464
C  17.670751  12.724286  -0.169809
C  17.670751  8.371221  -0.365881
C  17.670751  9.823667  -0.322835
C  18.905140  10.553000  -0.012560
C  18.905140  12.029000  0.030969
C  17.670751  4.000000  -0.326121
C  17.670751  5.453610  -0.371358
C  18.905140  6.197900  -0.162140
C  18.905140  7.631998  -0.151098
C  20.154752  8.371221  0.104510
C  20.154752  9.823667  0.145754
C  18.905140  3.272000  0.002090
C  20.154752  4.000000  0.160785
C  20.154752  5.453610  0.113319
C  21.411000  6.197900  0.184110
C  21.411000  7.631998  0.191946
C  17.670751  1.101000  -0.156791
C  18.905140  1.797813  0.054048
C  5.067250  5.453610  -0.536280
C  5.067250  4.000000  -0.452603
C  3.815571  3.272000  -0.433126
C  3.815571  1.797813  -0.225740
C  11.361143  3.272000  -0.224593
C  2.546438  1.101000  -0.235040
C  3.815571  7.631998  -0.528235
C  3.815571  6.197900  -0.538439
C  11.361143  7.631998  -0.294001
C  2.546438  5.453610  -0.529115
C  11.361143  6.197900  -0.303001
C  2.546438  4.000000  -0.459942
C  10.098375  5.453610  -0.235991
C  16.391568  3.272000  -0.460106
C  1.302141  3.272000  -0.471237
C  10.098375  4.000000  -0.038060
C  16.391568  1.797813  -0.383724
C  1.302141  1.797813  -0.383043
C  8.830644  3.272000  0.034874
C  15.145562  1.101000  -0.239256
C  0.021251  1.101000  -0.160576
C  11.361143  12.029000  0.037998
C  2.546438  9.823667  -0.432584
C  11.361143  10.553000  -0.150904
C  2.546438  8.371221  -0.531414
C  10.098375  9.823667  0.010954
C  16.391568  7.631998  -0.470401
C  1.302141  7.631998  -0.533162
C  10.098375  8.371221  -0.201725
C  16.391568  6.197900  -0.484323
C  1.302141  6.197900  -0.538030
C  15.145562  5.453610  -0.500196
C  0.021251  5.453610  -0.444125
C  8.830644  7.631998  -0.220552
C  8.830644  6.197900  -0.234531
C  15.145562  4.000000  -0.434587
C  0.021251  4.000000  -0.373199
C  7.582124  5.453610  -0.258515
C  13.876357  3.272000  -0.420214
C  -1.214289  3.272000  -0.035319
C  7.582124  4.000000  -0.053158
C  13.876357  1.797813  -0.234861
C  -1.214289  1.797813  0.029838
C  10.098375  12.724286  0.174431
C  1.302141  10.553000  -0.458028
C  8.830644  12.029000  0.199479
C  15.145562  9.823667  -0.412439
C  0.021251  9.823667  -0.363267
C  8.830644  10.553000  0.119004
C  15.145562  8.371221  -0.479473
C  0.021251  8.371221  -0.433258
C  7.582124  9.823667  0.007178
C  13.876357  7.631998  -0.504269
C  -1.214289  7.631998  -0.229307
C  7.582124  8.371221  -0.219639
C  13.876357  6.197900  -0.505349
C  -1.214289  6.197900  -0.228547
C  6.330357  7.631998  -0.313876
C  12.623562  5.453610  -0.512882
C  -2.463372  5.453610  0.014102
C  6.330357  6.197900  -0.324167
C  12.623562  4.000000  -0.436648
C  -2.463372  4.000000  0.094704
C  7.582124  12.724286  0.185795
C  13.876357  10.553000  -0.359274
C  -1.214289  10.553000  -0.048559
C  6.330357  12.029000  0.047497
C  12.623562  9.823667  -0.390763
C  -2.463372  9.823667  0.076943
C  6.330357  10.553000  -0.170788
C  12.623562  8.371221  -0.491532
C  -2.463372  8.371221  0.014621
C  5.067250  9.823667  -0.406818
C  -3.721000  7.631998  0.062875
C  5.067250  8.371221  -0.511358
C  -3.721000  6.197900  0.066050
C  5.067250  12.724286  0.030109
C  3.815571  12.029000  -0.154160
C  3.815571  10.553000  -0.361926
C  2.546438  12.724286  -0.173124
C  1.302141  12.029000  -0.345428
C  6.330357  3.272000  -0.235394
C  15.145562  12.724286  -0.200305
C  0.021251  12.724286  -0.127105
C  13.876357  12.029000  -0.162691
C  -1.214289  12.029000  0.030951
C  12.623562  12.724286  0.019486
C  6.330357  1.797813  -0.049075
C  8.830644  1.797813  0.091833
C  11.361143  1.797813  -0.035578
C  10.098375  1.101000  0.056480
C  7.582124  1.101000  0.052661
C  5.067250  1.101000  -0.074905
C  12.623562  1.101000  -0.067343
