142
frame	732
H  17.693000  13.826000  0.000000
H  19.858000  12.564000  0.000000
H  21.106000  10.363000  0.000000
H  22.366000  5.656000  0.000000
H  22.367000  8.165000  0.000000
H  19.852000  1.261000  0.000000
H  17.690000  -0.000000  0.000000
H  21.104000  3.459000  0.000000
H  2.530000  -0.005000  0.000000
H  15.160000  -0.002000  0.000000
H  0.000000  -0.000000  0.000000
H  -2.163000  1.262000  0.000000
H  -3.415000  3.463000  0.000000
H  -4.677000  8.168000  0.000000
H  -4.678000  5.662000  0.000000
H  -2.159000  12.565000  0.000000
H  10.109000  13.837000  0.000000
H  7.585000  13.838000  0.000000
H  5.062000  13.833000  0.000000
H  2.535000  13.828000  0.000000
H  15.163000  13.830000  0.000000
H  0.007000  13.825000  0.000000
H  -3.412000  10.366000  0.000000
H  12.635000  13.835000  0.000000
H  10.108000  -0.010000  0.000000
H  7.583000  -0.012000  0.000000
H  5.058000  -0.011000  0.000000
H  12.631000  -0.009000  0.000000
C  16.391568  10.553000  0.421916
C  16.391568  12.029000  0.255585
C  17.670751  12.724286  0.240423
C  17.670751  8.371221  0.549675
C  17.670751  9.823667  0.503389
C  18.905140  10.553000  0.545671
C  18.905140  12.029000  0.362824
C  17.670751  4.000000  0.502403
C  17.670751  5.453610  0.540779
C  18.905140  6.197900  0.693079
C  18.905140  7.631998  0.679179
C  20.154752  8.371221  0.561225
C  20.154752  9.823667  0.467239
C  18.905140  3.272000  0.561908
C  20.154752  4.000000  0.487657
C  20.154752  5.453610  0.559015
C  21.411000  6.197900  0.289287
C  21.411000  7.631998  0.293262
C  17.670751  1.101000  0.234128
C  18.905140  1.797813  0.370902
C  5.067250  5.453610  0.145306
C  5.067250  4.000000  0.112202
C  3.815571  3.272000  0.271167
C  3.815571  1.797813  0.163561
C  11.361143  3.272000  0.061228
C  2.546438  1.101000  0.142620
C  3.815571  7.631998  0.233266
C  3.815571  6.197900  0.211220
C  11.361143  7.631998  0.181292
C  2.546438  5.453610  0.353258
C  11.361143  6.197900  0.150836
C  2.546438  4.000000  0.405049
C  10.098375  5.453610  0.246945
C  16.391568  3.272000  0.414722
C  1.302141  3.272000  0.417787
C  10.098375  4.000000  0.075503
C  16.391568  1.797813  0.242590
C  1.302141  1.797813  0.251518
C  8.830644  3.272000  0.143232
C  15.145562  1.101000  0.139970
C  0.021251  1.101000  0.235791
C  11.361143  12.029000  0.117270
C  2.546438  9.823667  0.459719
C  11.361143  10.553000  0.120156
C  2.546438  8.371221  0.388185
C  10.098375  9.823667  0.140844
C  16.391568  7.631998  0.462281
C  1.302141  7.631998  0.470976
C  10.098375  8.371221  0.290907
C  16.391568  6.197900  0.460401
C  1.302141  6.197900  0.468105
C  15.145562  5.453610  0.334251
C  0.021251  5.453610  0.517906
C  8.830644  7.631998  0.392980
C  8.830644  6.197900  0.374625
C  15.145562  4.000000  0.391040
C  0.021251  4.000000  0.489315
C  7.582124  5.453610  0.249288
C  13.876357  3.272000  0.233379
C  -1.214289  3.272000  0.527796
C  7.582124  4.000000  0.080131
C  13.876357  1.797813  0.137971
C  -1.214289  1.797813  0.350428
C  10.098375  12.724286  0.156182
C  1.302141  10.553000  0.457633
C  8.830644  12.029000  0.182480
C  15.145562  9.823667  0.421616
C  0.021251  9.823667  0.511043
C  8.830644  10.553000  0.227761
C  15.145562  8.371221  0.358199
C  0.021251  8.371221  0.529887
C  7.582124  9.823667  0.167733
C  13.876357  7.631998  0.188664
C  -1.214289  7.631998  0.638579
C  7.582124  8.371221  0.295470
C  13.876357  6.197900  0.169754
C  -1.214289  6.197900  0.638344
C  6.330357  7.631998  0.219325
C  12.623562  5.453610  0.107004
C  -2.463372  5.453610  0.472026
C  6.330357  6.197900  0.189154
C  12.623562  4.000000  0.074342
C  -2.463372  4.000000  0.428943
C  7.582124  12.724286  0.169822
C  13.876357  10.553000  0.267252
C  -1.214289  10.553000  0.539248
C  6.330357  12.029000  0.144735
C  12.623562  9.823667  0.127735
C  -2.463372  9.823667  0.420586
C  6.330357  10.553000  0.164688
C  12.623562  8.371221  0.143709
C  -2.463372  8.371221  0.481125
C  5.067250  9.823667  0.175175
C  -3.721000  7.631998  0.169880
C  5.067250  8.371221  0.198038
C  -3.721000  6.197900  0.179890
C  5.067250  12.724286  0.187061
C  3.815571  12.029000  0.259403
C  3.815571  10.553000  0.338253
C  2.546438  12.724286  0.219224
C  1.302141  12.029000  0.288855
C  6.330357  3.272000  0.067037
C  15.145562  12.724286  0.161638
C  0.021251  12.724286  0.271780
C  13.876357  12.029000  0.175848
C  -1.214289  12.029000  0.352227
C  12.623562  12.724286  0.140829
C  6.330357  1.797813  0.011825
C  8.830644  1.797813  0.057498
C  11.361143  1.797813  0.010497
C  10.098375  1.101000  0.024167
C  7.582124  1.101000  0.011705
C  5.067250  1.101000  0.068346
C  12.623562  1.101000  0.047126
