142
frame	433
H  17.693000  13.826000  0.000000
H  19.858000  12.564000  0.000000
H  21.106000  10.363000  0.000000
H  22.366000  5.656000  0.000000
H  22.367000  8.165000  0.000000
H  19.852000  1.261000  0.000000
H  17.690000  -0.000000  0.000000
H  21.104000  3.459000  0.000000
H  2.530000  -0.005000  0.000000
H  15.160000  -0.002000  0.000000
H  0.000000  -0.000000  0.000000
H  -2.163000  1.262000  0.000000
H  -3.415000  3.463000  0.000000
H  -4.677000  8.168000  0.000000
H  -4.678000  5.662000  0.000000
H  -2.159000  12.565000  0.000000
H  10.109000  13.837000  0.000000
H  7.585000  13.838000  0.000000
H  5.062000  13.833000  0.000000
H  2.535000  13.828000  0.000000
H  15.163000  13.830000  0.000000
H  0.007000  13.825000  0.000000
H  -3.412000  10.366000  0.000000
H  12.635000  13.835000  0.000000
H  10.108000  -0.010000  0.000000
H  7.583000  -0.012000  0.000000
H  5.058000  -0.011000  0.000000
H  12.631000  -0.009000  0.000000
C  16.391568  10.553000  -0.494749
C  16.391568  12.029000  -0.315323
C  17.670751  12.724286  -0.146249
C  17.670751  8.371221  -0.420105
C  17.670751  9.823667  -0.368290
C  18.905140  10.553000  -0.201154
C  18.905140  12.029000  -0.168802
C  17.670751  4.000000  -0.373162
C  17.670751  5.453610  -0.417548
C  18.905140  6.197900  -0.232472
C  18.905140  7.631998  -0.230150
C  20.154752  8.371221  0.034346
C  20.154752  9.823667  -0.000802
C  18.905140  3.272000  -0.194465
C  20.154752  4.000000  0.010543
C  20.154752  5.453610  0.049296
C  21.411000  6.197900  0.283058
C  21.411000  7.631998  0.270086
C  17.670751  1.101000  -0.147121
C  18.905140  1.797813  -0.167297
C  5.067250  5.453610  -0.315447
C  5.067250  4.000000  -0.337967
C  3.815571  3.272000  -0.582082
C  3.815571  1.797813  -0.502813
C  11.361143  3.272000  -0.162367
C  2.546438  1.101000  -0.401457
C  3.815571  7.631998  -0.405286
C  3.815571  6.197900  -0.416153
C  11.361143  7.631998  -0.305634
C  2.546438  5.453610  -0.663717
C  11.361143  6.197900  -0.322213
C  2.546438  4.000000  -0.710800
C  10.098375  5.453610  -0.394730
C  16.391568  3.272000  -0.500677
C  1.302141  3.272000  -0.549877
C  10.098375  4.000000  -0.158575
C  16.391568  1.797813  -0.348759
C  1.302141  1.797813  -0.357740
C  8.830644  3.272000  -0.076802
C  15.145562  1.101000  -0.386554
C  0.021251  1.101000  -0.171771
C  11.361143  12.029000  0.016633
C  2.546438  9.823667  -0.679492
C  11.361143  10.553000  -0.087108
C  2.546438  8.371221  -0.648624
C  10.098375  9.823667  -0.093253
C  16.391568  7.631998  -0.640782
C  1.302141  7.631998  -0.699476
C  10.098375  8.371221  -0.355892
C  16.391568  6.197900  -0.634999
C  1.302141  6.197900  -0.709569
C  15.145562  5.453610  -0.610780
C  0.021251  5.453610  -0.473110
C  8.830644  7.631998  -0.410615
C  8.830644  6.197900  -0.425920
C  15.145562  4.000000  -0.680355
C  0.021251  4.000000  -0.412262
C  7.582124  5.453610  -0.390624
C  13.876357  3.272000  -0.576087
C  -1.214289  3.272000  -0.228182
C  7.582124  4.000000  -0.160557
C  13.876357  1.797813  -0.493504
C  -1.214289  1.797813  -0.198411
C  10.098375  12.724286  0.136391
C  1.302141  10.553000  -0.515016
C  8.830644  12.029000  0.116153
C  15.145562  9.823667  -0.649871
C  0.021251  9.823667  -0.406721
C  8.830644  10.553000  0.007127
C  15.145562  8.371221  -0.596602
C  0.021251  8.371221  -0.481115
C  7.582124  9.823667  -0.089497
C  13.876357  7.631998  -0.351080
C  -1.214289  7.631998  -0.324916
C  7.582124  8.371221  -0.344622
C  13.876357  6.197900  -0.368070
C  -1.214289  6.197900  -0.306928
C  6.330357  7.631998  -0.300021
C  12.623562  5.453610  -0.290900
C  -2.463372  5.453610  -0.052914
C  6.330357  6.197900  -0.321129
C  12.623562  4.000000  -0.318458
C  -2.463372  4.000000  -0.071288
C  7.582124  12.724286  0.141953
C  13.876357  10.553000  -0.528523
C  -1.214289  10.553000  -0.219924
C  6.330357  12.029000  0.024594
C  12.623562  9.823667  -0.275142
C  -2.463372  9.823667  -0.076963
C  6.330357  10.553000  -0.097654
C  12.623562  8.371221  -0.263854
C  -2.463372  8.371221  -0.056472
C  5.067250  9.823667  -0.286648
C  -3.721000  7.631998  0.143219
C  5.067250  8.371221  -0.293145
C  -3.721000  6.197900  0.151323
C  5.067250  12.724286  -0.148337
C  3.815571  12.029000  -0.419024
C  3.815571  10.553000  -0.552230
C  2.546438  12.724286  -0.314395
C  1.302141  12.029000  -0.310063
C  6.330357  3.272000  -0.180688
C  15.145562  12.724286  -0.339641
C  0.021251  12.724286  -0.150860
C  13.876357  12.029000  -0.438280
C  -1.214289  12.029000  -0.197132
C  12.623562  12.724286  -0.175384
C  6.330357  1.797813  -0.084904
C  8.830644  1.797813  0.004387
C  11.361143  1.797813  -0.081454
C  10.098375  1.101000  0.006456
C  7.582124  1.101000  0.015970
C  5.067250  1.101000  -0.260163
C  12.623562  1.101000  -0.276846
