142
frame	626
H  17.693000  13.826000  0.000000
H  19.858000  12.564000  0.000000
H  21.106000  10.363000  0.000000
H  22.366000  5.656000  0.000000
H  22.367000  8.165000  0.000000
H  19.852000  1.261000  0.000000
H  17.690000  -0.000000  0.000000
H  21.104000  3.459000  0.000000
H  2.530000  -0.005000  0.000000
H  15.160000  -0.002000  0.000000
H  0.000000  -0.000000  0.000000
H  -2.163000  1.262000  0.000000
H  -3.415000  3.463000  0.000000
H  -4.677000  8.168000  0.000000
H  -4.678000  5.662000  0.000000
H  -2.159000  12.565000  0.000000
H  10.109000  13.837000  0.000000
H  7.585000  13.838000  0.000000
H  5.062000  13.833000  0.000000
H  2.535000  13.828000  0.000000
H  15.163000  13.830000  0.000000
H  0.007000  13.825000  0.000000
H  -3.412000  10.366000  0.000000
H  12.635000  13.835000  0.000000
H  10.108000  -0.010000  0.000000
H  7.583000  -0.012000  0.000000
H  5.058000  -0.011000  0.000000
H  12.631000  -0.009000  0.000000
C  16.391568  10.553000  0.175370
C  16.391568  12.029000  -0.021444
C  17.670751  12.724286  -0.174858
C  17.670751  8.371221  0.423812
C  17.670751  9.823667  0.239149
C  18.905140  10.553000  0.006674
C  18.905140  12.029000  -0.114423
C  17.670751  4.000000  0.240795
C  17.670751  5.453610  0.436918
C  18.905140  6.197900  0.298718
C  18.905140  7.631998  0.288409
C  20.154752  8.371221  0.197732
C  20.154752  9.823667  0.105203
C  18.905140  3.272000  0.000079
C  20.154752  4.000000  0.119554
C  20.154752  5.453610  0.224680
C  21.411000  6.197900  0.318985
C  21.411000  7.631998  0.309677
C  17.670751  1.101000  -0.162453
C  18.905140  1.797813  -0.105347
C  5.067250  5.453610  0.048601
C  5.067250  4.000000  0.045419
C  3.815571  3.272000  0.084310
C  3.815571  1.797813  0.111159
C  11.361143  3.272000  -0.172746
C  2.546438  1.101000  0.040883
C  3.815571  7.631998  0.224035
C  3.815571  6.197900  0.215362
C  11.361143  7.631998  -0.191373
C  2.546438  5.453610  0.362059
C  11.361143  6.197900  -0.195048
C  2.546438  4.000000  0.188760
C  10.098375  5.453610  -0.259004
C  16.391568  3.272000  0.166384
C  1.302141  3.272000  0.157437
C  10.098375  4.000000  -0.252501
C  16.391568  1.797813  -0.026108
C  1.302141  1.797813  -0.035948
C  8.830644  3.272000  -0.299795
C  15.145562  1.101000  0.026332
C  0.021251  1.101000  -0.198207
C  11.361143  12.029000  -0.002530
C  2.546438  9.823667  0.227810
C  11.361143  10.553000  -0.111501
C  2.546438  8.371221  0.387079
C  10.098375  9.823667  -0.213441
C  16.391568  7.631998  0.597536
C  1.302141  7.631998  0.574905
C  10.098375  8.371221  -0.236824
C  16.391568  6.197900  0.584844
C  1.302141  6.197900  0.572026
C  15.145562  5.453610  0.366385
C  0.021251  5.453610  0.398622
C  8.830644  7.631998  -0.190283
C  8.830644  6.197900  -0.189781
C  15.145562  4.000000  0.191314
C  0.021251  4.000000  0.213135
C  7.582124  5.453610  -0.263387
C  13.876357  3.272000  0.066505
C  -1.214289  3.272000  -0.020857
C  7.582124  4.000000  -0.249521
C  13.876357  1.797813  0.102064
C  -1.214289  1.797813  -0.128467
C  10.098375  12.724286  -0.067273
C  1.302141  10.553000  0.187378
C  8.830644  12.029000  -0.084861
C  15.145562  9.823667  0.203278
C  0.021251  9.823667  0.238136
C  8.830644  10.553000  -0.233391
C  15.145562  8.371221  0.385593
C  0.021251  8.371221  0.411478
C  7.582124  9.823667  -0.201461
C  13.876357  7.631998  0.211310
C  -1.214289  7.631998  0.271532
C  7.582124  8.371221  -0.245220
C  13.876357  6.197900  0.204349
C  -1.214289  6.197900  0.254401
C  6.330357  7.631998  -0.150611
C  12.623562  5.453610  0.020594
C  -2.463372  5.453610  0.155003
C  6.330357  6.197900  -0.164809
C  12.623562  4.000000  0.040363
C  -2.463372  4.000000  0.053732
C  7.582124  12.724286  -0.054418
C  13.876357  10.553000  0.108732
C  -1.214289  10.553000  -0.019224
C  6.330357  12.029000  0.009984
C  12.623562  9.823667  0.081862
C  -2.463372  9.823667  0.046523
C  6.330357  10.553000  -0.083446
C  12.623562  8.371221  0.051696
C  -2.463372  8.371221  0.151176
C  5.067250  9.823667  0.090582
C  -3.721000  7.631998  0.207763
C  5.067250  8.371221  0.075523
C  -3.721000  6.197900  0.209181
C  5.067250  12.724286  0.113168
C  3.815571  12.029000  0.192022
C  3.815571  10.553000  0.139319
C  2.546438  12.724286  0.104815
C  1.302141  12.029000  0.003855
C  6.330357  3.272000  -0.170684
C  15.145562  12.724286  0.066083
C  0.021251  12.724286  -0.166888
C  13.876357  12.029000  0.141061
C  -1.214289  12.029000  -0.135046
C  12.623562  12.724286  0.068680
C  6.330357  1.797813  -0.095793
C  8.830644  1.797813  -0.198858
C  11.361143  1.797813  -0.099067
C  10.098375  1.101000  -0.201463
C  7.582124  1.101000  -0.195347
C  5.067250  1.101000  0.002078
C  12.623562  1.101000  -0.004292
