142
frame	348
H  17.693000  13.826000  0.000000
H  19.858000  12.564000  0.000000
H  21.106000  10.363000  0.000000
H  22.366000  5.656000  0.000000
H  22.367000  8.165000  0.000000
H  19.852000  1.261000  0.000000
H  17.690000  -0.000000  0.000000
H  21.104000  3.459000  0.000000
H  2.530000  -0.005000  0.000000
H  15.160000  -0.002000  0.000000
H  0.000000  -0.000000  0.000000
H  -2.163000  1.262000  0.000000
H  -3.415000  3.463000  0.000000
H  -4.677000  8.168000  0.000000
H  -4.678000  5.662000  0.000000
H  -2.159000  12.565000  0.000000
H  10.109000  13.837000  0.000000
H  7.585000  13.838000  0.000000
H  5.062000  13.833000  0.000000
H  2.535000  13.828000  0.000000
H  15.163000  13.830000  0.000000
H  0.007000  13.825000  0.000000
H  -3.412000  10.366000  0.000000
H  12.635000  13.835000  0.000000
H  10.108000  -0.010000  0.000000
H  7.583000  -0.012000  0.000000
H  5.058000  -0.011000  0.000000
H  12.631000  -0.009000  0.000000
C  16.391568  10.553000  -0.206228
C  16.391568  12.029000  -0.068172
C  17.670751  12.724286  -0.097338
C  17.670751  8.371221  -0.543069
C  17.670751  9.823667  -0.255620
C  18.905140  10.553000  -0.157575
C  18.905140  12.029000  -0.088961
C  17.670751  4.000000  -0.273746
C  17.670751  5.453610  -0.539673
C  18.905140  6.197900  -0.625906
C  18.905140  7.631998  -0.639776
C  20.154752  8.371221  -0.330687
C  20.154752  9.823667  -0.150859
C  18.905140  3.272000  -0.141029
C  20.154752  4.000000  -0.155068
C  20.154752  5.453610  -0.323498
C  21.411000  6.197900  0.015546
C  21.411000  7.631998  0.022402
C  17.670751  1.101000  -0.078243
C  18.905140  1.797813  -0.071102
C  5.067250  5.453610  -0.525061
C  5.067250  4.000000  -0.419372
C  3.815571  3.272000  -0.443893
C  3.815571  1.797813  -0.210191
C  11.361143  3.272000  -0.467256
C  2.546438  1.101000  -0.055860
C  3.815571  7.631998  -0.538957
C  3.815571  6.197900  -0.559270
C  11.361143  7.631998  -0.508704
C  2.546438  5.453610  -0.576951
C  11.361143  6.197900  -0.522651
C  2.546438  4.000000  -0.489084
C  10.098375  5.453610  -0.411745
C  16.391568  3.272000  -0.221032
C  1.302141  3.272000  -0.273044
C  10.098375  4.000000  -0.523926
C  16.391568  1.797813  -0.084112
C  1.302141  1.797813  -0.129908
C  8.830644  3.272000  -0.648966
C  15.145562  1.101000  -0.056124
C  0.021251  1.101000  -0.126721
C  11.361143  12.029000  -0.239157
C  2.546438  9.823667  -0.437815
C  11.361143  10.553000  -0.392156
C  2.546438  8.371221  -0.554392
C  10.098375  9.823667  -0.468667
C  16.391568  7.631998  -0.603472
C  1.302141  7.631998  -0.660410
C  10.098375  8.371221  -0.371281
C  16.391568  6.197900  -0.611363
C  1.302141  6.197900  -0.670202
C  15.145562  5.453610  -0.535210
C  0.021251  5.453610  -0.599605
C  8.830644  7.631998  -0.172493
C  8.830644  6.197900  -0.192595
C  15.145562  4.000000  -0.451888
C  0.021251  4.000000  -0.325693
C  7.582124  5.453610  -0.428344
C  13.876357  3.272000  -0.425657
C  -1.214289  3.272000  -0.216509
C  7.582124  4.000000  -0.539966
C  13.876357  1.797813  -0.208984
C  -1.214289  1.797813  -0.104132
C  10.098375  12.724286  -0.180452
C  1.302141  10.553000  -0.227330
C  8.830644  12.029000  -0.308477
C  15.145562  9.823667  -0.419584
C  0.021251  9.823667  -0.311248
C  8.830644  10.553000  -0.557624
C  15.145562  8.371221  -0.503694
C  0.021251  8.371221  -0.593877
C  7.582124  9.823667  -0.460699
C  13.876357  7.631998  -0.520690
C  -1.214289  7.631998  -0.736008
C  7.582124  8.371221  -0.370929
C  13.876357  6.197900  -0.541059
C  -1.214289  6.197900  -0.739747
C  6.330357  7.631998  -0.510137
C  12.623562  5.453610  -0.517147
C  -2.463372  5.453610  -0.417855
C  6.330357  6.197900  -0.528255
C  12.623562  4.000000  -0.395781
C  -2.463372  4.000000  -0.227511
C  7.582124  12.724286  -0.172366
C  13.876357  10.553000  -0.378798
C  -1.214289  10.553000  -0.212116
C  6.330357  12.029000  -0.228871
C  12.623562  9.823667  -0.355539
C  -2.463372  9.823667  -0.240108
C  6.330357  10.553000  -0.390437
C  12.623562  8.371221  -0.480979
C  -2.463372  8.371221  -0.415146
C  5.067250  9.823667  -0.359278
C  -3.721000  7.631998  -0.109961
C  5.067250  8.371221  -0.492555
C  -3.721000  6.197900  -0.102550
C  5.067250  12.724286  -0.109013
C  3.815571  12.029000  -0.112480
C  3.815571  10.553000  -0.387417
C  2.546438  12.724286  0.015887
C  1.302141  12.029000  -0.078163
C  6.330357  3.272000  -0.478507
C  15.145562  12.724286  -0.000070
C  0.021251  12.724286  -0.097815
C  13.876357  12.029000  -0.148158
C  -1.214289  12.029000  -0.112191
C  12.623562  12.724286  -0.142703
C  6.330357  1.797813  -0.349392
C  8.830644  1.797813  -0.427098
C  11.361143  1.797813  -0.345531
C  10.098375  1.101000  -0.319084
C  7.582124  1.101000  -0.318015
C  5.067250  1.101000  -0.236497
C  12.623562  1.101000  -0.246134
