142
frame	271
H  17.693000  13.826000  0.000000
H  19.858000  12.564000  0.000000
H  21.106000  10.363000  0.000000
H  22.366000  5.656000  0.000000
H  22.367000  8.165000  0.000000
H  19.852000  1.261000  0.000000
H  17.690000  -0.000000  0.000000
H  21.104000  3.459000  0.000000
H  2.530000  -0.005000  0.000000
H  15.160000  -0.002000  0.000000
H  0.000000  -0.000000  0.000000
H  -2.163000  1.262000  0.000000
H  -3.415000  3.463000  0.000000
H  -4.677000  8.168000  0.000000
H  -4.678000  5.662000  0.000000
H  -2.159000  12.565000  0.000000
H  10.109000  13.837000  0.000000
H  7.585000  13.838000  0.000000
H  5.062000  13.833000  0.000000
H  2.535000  13.828000  0.000000
H  15.163000  13.830000  0.000000
H  0.007000  13.825000  0.000000
H  -3.412000  10.366000  0.000000
H  12.635000  13.835000  0.000000
H  10.108000  -0.010000  0.000000
H  7.583000  -0.012000  0.000000
H  5.058000  -0.011000  0.000000
H  12.631000  -0.009000  0.000000
C  16.391568  10.553000  -0.260145
C  16.391568  12.029000  -0.267177
C  17.670751  12.724286  -0.263880
C  17.670751  8.371221  -0.172431
C  17.670751  9.823667  -0.106682
C  18.905140  10.553000  -0.004347
C  18.905140  12.029000  -0.131389
C  17.670751  4.000000  -0.106764
C  17.670751  5.453610  -0.150388
C  18.905140  6.197900  -0.149910
C  18.905140  7.631998  -0.153717
C  20.154752  8.371221  0.097515
C  20.154752  9.823667  0.112930
C  18.905140  3.272000  -0.009408
C  20.154752  4.000000  0.121072
C  20.154752  5.453610  0.097477
C  21.411000  6.197900  0.310328
C  21.411000  7.631998  0.287962
C  17.670751  1.101000  -0.259599
C  18.905140  1.797813  -0.122907
C  5.067250  5.453610  -0.691838
C  5.067250  4.000000  -0.517783
C  3.815571  3.272000  -0.392373
C  3.815571  1.797813  -0.164003
C  11.361143  3.272000  -0.403380
C  2.546438  1.101000  -0.142216
C  3.815571  7.631998  -0.515110
C  3.815571  6.197900  -0.526527
C  11.361143  7.631998  -0.864121
C  2.546438  5.453610  -0.397584
C  11.361143  6.197900  -0.873981
C  2.546438  4.000000  -0.433362
C  10.098375  5.453610  -0.775152
C  16.391568  3.272000  -0.274535
C  1.302141  3.272000  -0.303123
C  10.098375  4.000000  -0.615291
C  16.391568  1.797813  -0.297940
C  1.302141  1.797813  -0.303375
C  8.830644  3.272000  -0.539809
C  15.145562  1.101000  -0.141974
C  0.021251  1.101000  -0.269809
C  11.361143  12.029000  0.003852
C  2.546438  9.823667  -0.378123
C  11.361143  10.553000  -0.332485
C  2.546438  8.371221  -0.379230
C  10.098375  9.823667  -0.553884
C  16.391568  7.631998  -0.240600
C  1.302141  7.631998  -0.275714
C  10.098375  8.371221  -0.741594
C  16.391568  6.197900  -0.238687
C  1.302141  6.197900  -0.284786
C  15.145562  5.453610  -0.378988
C  0.021251  5.453610  -0.230674
C  8.830644  7.631998  -0.715674
C  8.830644  6.197900  -0.732259
C  15.145562  4.000000  -0.404145
C  0.021251  4.000000  -0.141404
C  7.582124  5.453610  -0.786369
C  13.876357  3.272000  -0.364342
C  -1.214289  3.272000  -0.024670
C  7.582124  4.000000  -0.623751
C  13.876357  1.797813  -0.161310
C  -1.214289  1.797813  -0.151030
C  10.098375  12.724286  -0.007747
C  1.302141  10.553000  -0.260504
C  8.830644  12.029000  -0.077004
C  15.145562  9.823667  -0.376344
C  0.021251  9.823667  -0.129117
C  8.830644  10.553000  -0.442310
C  15.145562  8.371221  -0.367680
C  0.021251  8.371221  -0.209873
C  7.582124  9.823667  -0.555214
C  13.876357  7.631998  -0.495422
C  -1.214289  7.631998  -0.227148
C  7.582124  8.371221  -0.740676
C  13.876357  6.197900  -0.513485
C  -1.214289  6.197900  -0.230564
C  6.330357  7.631998  -0.865898
C  12.623562  5.453610  -0.687844
C  -2.463372  5.453610  -0.003971
C  6.330357  6.197900  -0.889047
C  12.623562  4.000000  -0.507160
C  -2.463372  4.000000  0.051013
C  7.582124  12.724286  0.007780
C  13.876357  10.553000  -0.332324
C  -1.214289  10.553000  -0.026443
C  6.330357  12.029000  0.035011
C  12.623562  9.823667  -0.467682
C  -2.463372  9.823667  0.043118
C  6.330357  10.553000  -0.319040
C  12.623562  8.371221  -0.652855
C  -2.463372  8.371221  0.000271
C  5.067250  9.823667  -0.454468
C  -3.721000  7.631998  0.189603
C  5.067250  8.371221  -0.663745
C  -3.721000  6.197900  0.175746
C  5.067250  12.724286  0.067230
C  3.815571  12.029000  -0.068785
C  3.815571  10.553000  -0.327501
C  2.546438  12.724286  -0.065198
C  1.302141  12.029000  -0.259482
C  6.330357  3.272000  -0.399754
C  15.145562  12.724286  -0.093008
C  0.021251  12.724286  -0.245701
C  13.876357  12.029000  -0.092999
C  -1.214289  12.029000  -0.147527
C  12.623562  12.724286  0.034948
C  6.330357  1.797813  -0.100541
C  8.830644  1.797813  -0.208040
C  11.361143  1.797813  -0.104747
C  10.098375  1.101000  -0.145897
C  7.582124  1.101000  -0.142427
C  5.067250  1.101000  -0.061791
C  12.623562  1.101000  -0.071311
