142
frame	262
H  17.693000  13.826000  0.000000
H  19.858000  12.564000  0.000000
H  21.106000  10.363000  0.000000
H  22.366000  5.656000  0.000000
H  22.367000  8.165000  0.000000
H  19.852000  1.261000  0.000000
H  17.690000  -0.000000  0.000000
H  21.104000  3.459000  0.000000
H  2.530000  -0.005000  0.000000
H  15.160000  -0.002000  0.000000
H  0.000000  -0.000000  0.000000
H  -2.163000  1.262000  0.000000
H  -3.415000  3.463000  0.000000
H  -4.677000  8.168000  0.000000
H  -4.678000  5.662000  0.000000
H  -2.159000  12.565000  0.000000
H  10.109000  13.837000  0.000000
H  7.585000  13.838000  0.000000
H  5.062000  13.833000  0.000000
H  2.535000  13.828000  0.000000
H  15.163000  13.830000  0.000000
H  0.007000  13.825000  0.000000
H  -3.412000  10.366000  0.000000
H  12.635000  13.835000  0.000000
H  10.108000  -0.010000  0.000000
H  7.583000  -0.012000  0.000000
H  5.058000  -0.011000  0.000000
H  12.631000  -0.009000  0.000000
C  16.391568  10.553000  -0.292420
C  16.391568  12.029000  -0.302980
C  17.670751  12.724286  -0.181099
C  17.670751  8.371221  -0.071939
C  17.670751  9.823667  -0.187276
C  18.905140  10.553000  -0.109627
C  18.905140  12.029000  -0.101941
C  17.670751  4.000000  -0.193268
C  17.670751  5.453610  -0.057020
C  18.905140  6.197900  -0.010223
C  18.905140  7.631998  -0.015819
C  20.154752  8.371221  0.147753
C  20.154752  9.823667  0.128656
C  18.905140  3.272000  -0.091397
C  20.154752  4.000000  0.124528
C  20.154752  5.453610  0.151358
C  21.411000  6.197900  0.301421
C  21.411000  7.631998  0.295363
C  17.670751  1.101000  -0.179114
C  18.905140  1.797813  -0.100275
C  5.067250  5.453610  -0.759914
C  5.067250  4.000000  -0.512428
C  3.815571  3.272000  -0.332407
C  3.815571  1.797813  -0.136836
C  11.361143  3.272000  -0.466092
C  2.546438  1.101000  -0.197992
C  3.815571  7.631998  -0.618785
C  3.815571  6.197900  -0.625842
C  11.361143  7.631998  -0.828742
C  2.546438  5.453610  -0.367630
C  11.361143  6.197900  -0.840046
C  2.546438  4.000000  -0.352722
C  10.098375  5.453610  -0.768886
C  16.391568  3.272000  -0.314223
C  1.302141  3.272000  -0.338597
C  10.098375  4.000000  -0.587861
C  16.391568  1.797813  -0.323977
C  1.302141  1.797813  -0.330485
C  8.830644  3.272000  -0.555376
C  15.145562  1.101000  -0.200121
C  0.021251  1.101000  -0.201856
C  11.361143  12.029000  -0.023494
C  2.546438  9.823667  -0.298941
C  11.361143  10.553000  -0.398051
C  2.546438  8.371221  -0.356165
C  10.098375  9.823667  -0.528200
C  16.391568  7.631998  -0.113423
C  1.302141  7.631998  -0.140369
C  10.098375  8.371221  -0.728499
C  16.391568  6.197900  -0.112918
C  1.302141  6.197900  -0.157031
C  15.145562  5.453610  -0.355261
C  0.021251  5.453610  -0.121987
C  8.830644  7.631998  -0.739044
C  8.830644  6.197900  -0.757028
C  15.145562  4.000000  -0.318083
C  0.021251  4.000000  -0.227431
C  7.582124  5.453610  -0.774378
C  13.876357  3.272000  -0.313581
C  -1.214289  3.272000  -0.126531
C  7.582124  4.000000  -0.599561
C  13.876357  1.797813  -0.135420
C  -1.214289  1.797813  -0.119159
C  10.098375  12.724286  0.005006
C  1.302141  10.553000  -0.302449
C  8.830644  12.029000  -0.084651
C  15.145562  9.823667  -0.299362
C  0.021251  9.823667  -0.207211
C  8.830644  10.553000  -0.458369
C  15.145562  8.371221  -0.338199
C  0.021251  8.371221  -0.097965
C  7.582124  9.823667  -0.534946
C  13.876357  7.631998  -0.606713
C  -1.214289  7.631998  -0.089838
C  7.582124  8.371221  -0.722986
C  13.876357  6.197900  -0.614581
C  -1.214289  6.197900  -0.101090
C  6.330357  7.631998  -0.837871
C  12.623562  5.453610  -0.748834
C  -2.463372  5.453610  0.059120
C  6.330357  6.197900  -0.851214
C  12.623562  4.000000  -0.501167
C  -2.463372  4.000000  0.072114
C  7.582124  12.724286  0.017519
C  13.876357  10.553000  -0.269792
C  -1.214289  10.553000  -0.125393
C  6.330357  12.029000  0.009371
C  12.623562  9.823667  -0.472541
C  -2.463372  9.823667  0.051755
C  6.330357  10.553000  -0.380366
C  12.623562  8.371221  -0.717215
C  -2.463372  8.371221  0.067069
C  5.067250  9.823667  -0.452685
C  -3.721000  7.631998  0.184387
C  5.067250  8.371221  -0.729099
C  -3.721000  6.197900  0.173540
C  5.067250  12.724286  0.032637
C  3.815571  12.029000  -0.041496
C  3.815571  10.553000  -0.262566
C  2.546438  12.724286  -0.126980
C  1.302141  12.029000  -0.284062
C  6.330357  3.272000  -0.465745
C  15.145562  12.724286  -0.155310
C  0.021251  12.724286  -0.172768
C  13.876357  12.029000  -0.071190
C  -1.214289  12.029000  -0.122291
C  12.623562  12.724286  0.000841
C  6.330357  1.797813  -0.121288
C  8.830644  1.797813  -0.214139
C  11.361143  1.797813  -0.128358
C  10.098375  1.101000  -0.142203
C  7.582124  1.101000  -0.138559
C  5.067250  1.101000  -0.093590
C  12.623562  1.101000  -0.112457
