142
frame	181
H  17.693000  13.826000  0.000000
H  19.858000  12.564000  0.000000
H  21.106000  10.363000  0.000000
H  22.366000  5.656000  0.000000
H  22.367000  8.165000  0.000000
H  19.852000  1.261000  0.000000
H  17.690000  -0.000000  0.000000
H  21.104000  3.459000  0.000000
H  2.530000  -0.005000  0.000000
H  15.160000  -0.002000  0.000000
H  0.000000  -0.000000  0.000000
H  -2.163000  1.262000  0.000000
H  -3.415000  3.463000  0.000000
H  -4.677000  8.168000  0.000000
H  -4.678000  5.662000  0.000000
H  -2.159000  12.565000  0.000000
H  10.109000  13.837000  0.000000
H  7.585000  13.838000  0.000000
H  5.062000  13.833000  0.000000
H  2.535000  13.828000  0.000000
H  15.163000  13.830000  0.000000
H  0.007000  13.825000  0.000000
H  -3.412000  10.366000  0.000000
H  12.635000  13.835000  0.000000
H  10.108000  -0.010000  0.000000
H  7.583000  -0.012000  0.000000
H  5.058000  -0.011000  0.000000
H  12.631000  -0.009000  0.000000
C  16.391568  10.553000  -0.015539
C  16.391568  12.029000  -0.028337
C  17.670751  12.724286  0.132670
C  17.670751  8.371221  -0.002034
C  17.670751  9.823667  0.178913
C  18.905140  10.553000  0.439227
C  18.905140  12.029000  0.301732
C  17.670751  4.000000  0.182317
C  17.670751  5.453610  0.023132
C  18.905140  6.197900  0.137910
C  18.905140  7.631998  0.136103
C  20.154752  8.371221  0.362955
C  20.154752  9.823667  0.423827
C  18.905140  3.272000  0.437227
C  20.154752  4.000000  0.447918
C  20.154752  5.453610  0.363646
C  21.411000  6.197900  0.342284
C  21.411000  7.631998  0.339007
C  17.670751  1.101000  0.124594
C  18.905140  1.797813  0.307913
C  5.067250  5.453610  -0.479248
C  5.067250  4.000000  -0.611955
C  3.815571  3.272000  -0.436523
C  3.815571  1.797813  -0.333806
C  11.361143  3.272000  -0.729100
C  2.546438  1.101000  -0.238907
C  3.815571  7.631998  -0.329885
C  3.815571  6.197900  -0.341149
C  11.361143  7.631998  -0.405456
C  2.546438  5.453610  -0.154885
C  11.361143  6.197900  -0.423212
C  2.546438  4.000000  -0.192684
C  10.098375  5.453610  -0.648169
C  16.391568  3.272000  -0.017255
C  1.302141  3.272000  -0.032625
C  10.098375  4.000000  -0.709576
C  16.391568  1.797813  -0.052054
C  1.302141  1.797813  -0.059780
C  8.830644  3.272000  -0.722378
C  15.145562  1.101000  -0.231435
C  0.021251  1.101000  0.122926
C  11.361143  12.029000  -0.324166
C  2.546438  9.823667  -0.153052
C  11.361143  10.553000  -0.668379
C  2.546438  8.371221  -0.151247
C  10.098375  9.823667  -0.666316
C  16.391568  7.631998  -0.061908
C  1.302141  7.631998  -0.058323
C  10.098375  8.371221  -0.591085
C  16.391568  6.197900  -0.060892
C  1.302141  6.197900  -0.061310
C  15.145562  5.453610  -0.161037
C  0.021251  5.453610  -0.016315
C  8.830644  7.631998  -0.675264
C  8.830644  6.197900  -0.698505
C  15.145562  4.000000  -0.196133
C  0.021251  4.000000  0.165049
C  7.582124  5.453610  -0.642574
C  13.876357  3.272000  -0.434602
C  -1.214289  3.272000  0.417290
C  7.582124  4.000000  -0.703934
C  13.876357  1.797813  -0.343384
C  -1.214289  1.797813  0.283845
C  10.098375  12.724286  -0.216824
C  1.302141  10.553000  0.006116
C  8.830644  12.029000  -0.267156
C  15.145562  9.823667  -0.166932
C  0.021251  9.823667  0.172645
C  8.830644  10.553000  -0.646846
C  15.145562  8.371221  -0.141608
C  0.021251  8.371221  -0.002448
C  7.582124  9.823667  -0.649252
C  13.876357  7.631998  -0.343059
C  -1.214289  7.631998  0.095608
C  7.582124  8.371221  -0.599030
C  13.876357  6.197900  -0.344512
C  -1.214289  6.197900  0.091742
C  6.330357  7.631998  -0.408549
C  12.623562  5.453610  -0.497225
C  -2.463372  5.453610  0.305260
C  6.330357  6.197900  -0.414553
C  12.623562  4.000000  -0.602167
C  -2.463372  4.000000  0.392597
C  7.582124  12.724286  -0.196883
C  13.876357  10.553000  -0.385004
C  -1.214289  10.553000  0.412756
C  6.330357  12.029000  -0.303417
C  12.623562  9.823667  -0.567280
C  -2.463372  9.823667  0.383061
C  6.330357  10.553000  -0.650741
C  12.623562  8.371221  -0.462448
C  -2.463372  8.371221  0.297184
C  5.067250  9.823667  -0.548697
C  -3.721000  7.631998  0.241773
C  5.067250  8.371221  -0.447333
C  -3.721000  6.197900  0.245995
C  5.067250  12.724286  -0.136265
C  3.815571  12.029000  -0.244086
C  3.815571  10.553000  -0.376938
C  2.546438  12.724286  -0.164022
C  1.302141  12.029000  -0.006942
C  6.330357  3.272000  -0.730227
C  15.145562  12.724286  -0.200729
C  0.021251  12.724286  0.159745
C  13.876357  12.029000  -0.291025
C  -1.214289  12.029000  0.284285
C  12.623562  12.724286  -0.166175
C  6.330357  1.797813  -0.412883
C  8.830644  1.797813  -0.382252
C  11.361143  1.797813  -0.412956
C  10.098375  1.101000  -0.351274
C  7.582124  1.101000  -0.339493
C  5.067250  1.101000  -0.248257
C  12.623562  1.101000  -0.261138
