142
frame	651
H  17.693000  13.826000  0.000000
H  19.858000  12.564000  0.000000
H  21.106000  10.363000  0.000000
H  22.366000  5.656000  0.000000
H  22.367000  8.165000  0.000000
H  19.852000  1.261000  0.000000
H  17.690000  -0.000000  0.000000
H  21.104000  3.459000  0.000000
H  2.530000  -0.005000  0.000000
H  15.160000  -0.002000  0.000000
H  0.000000  -0.000000  0.000000
H  -2.163000  1.262000  0.000000
H  -3.415000  3.463000  0.000000
H  -4.677000  8.168000  0.000000
H  -4.678000  5.662000  0.000000
H  -2.159000  12.565000  0.000000
H  10.109000  13.837000  0.000000
H  7.585000  13.838000  0.000000
H  5.062000  13.833000  0.000000
H  2.535000  13.828000  0.000000
H  15.163000  13.830000  0.000000
H  0.007000  13.825000  0.000000
H  -3.412000  10.366000  0.000000
H  12.635000  13.835000  0.000000
H  10.108000  -0.010000  0.000000
H  7.583000  -0.012000  0.000000
H  5.058000  -0.011000  0.000000
H  12.631000  -0.009000  0.000000
C  16.391568  10.553000  0.123542
C  16.391568  12.029000  0.033934
C  17.670751  12.724286  -0.004412
C  17.670751  8.371221  0.464848
C  17.670751  9.823667  0.255781
C  18.905140  10.553000  0.231604
C  18.905140  12.029000  0.049865
C  17.670751  4.000000  0.264279
C  17.670751  5.453610  0.474055
C  18.905140  6.197900  0.485956
C  18.905140  7.631998  0.472113
C  20.154752  8.371221  0.408389
C  20.154752  9.823667  0.313026
C  18.905140  3.272000  0.258834
C  20.154752  4.000000  0.334772
C  20.154752  5.453610  0.406686
C  21.411000  6.197900  0.319257
C  21.411000  7.631998  0.313118
C  17.670751  1.101000  -0.012839
C  18.905140  1.797813  0.064431
C  5.067250  5.453610  -0.069803
C  5.067250  4.000000  0.029759
C  3.815571  3.272000  0.261349
C  3.815571  1.797813  0.147891
C  11.361143  3.272000  -0.096393
C  2.546438  1.101000  0.077127
C  3.815571  7.631998  0.299557
C  3.815571  6.197900  0.280821
C  11.361143  7.631998  -0.232448
C  2.546438  5.453610  0.420889
C  11.361143  6.197900  -0.253020
C  2.546438  4.000000  0.289491
C  10.098375  5.453610  -0.132333
C  16.391568  3.272000  0.111692
C  1.302141  3.272000  0.103788
C  10.098375  4.000000  -0.233837
C  16.391568  1.797813  0.003710
C  1.302141  1.797813  0.009117
C  8.830644  3.272000  -0.190579
C  15.145562  1.101000  0.068235
C  0.021251  1.101000  -0.011661
C  11.361143  12.029000  -0.005818
C  2.546438  9.823667  0.325783
C  11.361143  10.553000  -0.043413
C  2.546438  8.371221  0.450749
C  10.098375  9.823667  -0.180916
C  16.391568  7.631998  0.533344
C  1.302141  7.631998  0.549927
C  10.098375  8.371221  -0.106723
C  16.391568  6.197900  0.550530
C  1.302141  6.197900  0.535764
C  15.145562  5.453610  0.426232
C  0.021251  5.453610  0.463657
C  8.830644  7.631998  0.054619
C  8.830644  6.197900  0.038265
C  15.145562  4.000000  0.283644
C  0.021251  4.000000  0.245972
C  7.582124  5.453610  -0.099891
C  13.876357  3.272000  0.255223
C  -1.214289  3.272000  0.201432
C  7.582124  4.000000  -0.226824
C  13.876357  1.797813  0.123382
C  -1.214289  1.797813  0.034004
C  10.098375  12.724286  0.108831
C  1.302141  10.553000  0.144470
C  8.830644  12.029000  -0.002594
C  15.145562  9.823667  0.307690
C  0.021251  9.823667  0.253127
C  8.830644  10.553000  -0.118785
C  15.145562  8.371221  0.433464
C  0.021251  8.371221  0.467369
C  7.582124  9.823667  -0.171663
C  13.876357  7.631998  0.283210
C  -1.214289  7.631998  0.425471
C  7.582124  8.371221  -0.074976
C  13.876357  6.197900  0.270424
C  -1.214289  6.197900  0.439206
C  6.330357  7.631998  -0.232225
C  12.623562  5.453610  -0.090162
C  -2.463372  5.453610  0.325002
C  6.330357  6.197900  -0.233498
C  12.623562  4.000000  0.004415
C  -2.463372  4.000000  0.258184
C  7.582124  12.724286  0.106915
C  13.876357  10.553000  0.271734
C  -1.214289  10.553000  0.201587
C  6.330357  12.029000  0.027200
C  12.623562  9.823667  0.029868
C  -2.463372  9.823667  0.256479
C  6.330357  10.553000  -0.017961
C  12.623562  8.371221  -0.072518
C  -2.463372  8.371221  0.323542
C  5.067250  9.823667  0.087345
C  -3.721000  7.631998  0.197012
C  5.067250  8.371221  -0.040080
C  -3.721000  6.197900  0.200381
C  5.067250  12.724286  0.122476
C  3.815571  12.029000  0.231512
C  3.815571  10.553000  0.317598
C  2.546438  12.724286  0.160986
C  1.302141  12.029000  0.055525
C  6.330357  3.272000  -0.080114
C  15.145562  12.724286  0.101162
C  0.021251  12.724286  -0.001777
C  13.876357  12.029000  0.184495
C  -1.214289  12.029000  0.035646
C  12.623562  12.724286  0.079968
C  6.330357  1.797813  -0.101237
C  8.830644  1.797813  -0.128341
C  11.361143  1.797813  -0.102393
C  10.098375  1.101000  -0.028746
C  7.582124  1.101000  -0.037546
C  5.067250  1.101000  -0.006008
C  12.623562  1.101000  -0.029950
