142
frame	358
H  17.693000  13.826000  0.000000
H  19.858000  12.564000  0.000000
H  21.106000  10.363000  0.000000
H  22.366000  5.656000  0.000000
H  22.367000  8.165000  0.000000
H  19.852000  1.261000  0.000000
H  17.690000  -0.000000  0.000000
H  21.104000  3.459000  0.000000
H  2.530000  -0.005000  0.000000
H  15.160000  -0.002000  0.000000
H  0.000000  -0.000000  0.000000
H  -2.163000  1.262000  0.000000
H  -3.415000  3.463000  0.000000
H  -4.677000  8.168000  0.000000
H  -4.678000  5.662000  0.000000
H  -2.159000  12.565000  0.000000
H  10.109000  13.837000  0.000000
H  7.585000  13.838000  0.000000
H  5.062000  13.833000  0.000000
H  2.535000  13.828000  0.000000
H  15.163000  13.830000  0.000000
H  0.007000  13.825000  0.000000
H  -3.412000  10.366000  0.000000
H  12.635000  13.835000  0.000000
H  10.108000  -0.010000  0.000000
H  7.583000  -0.012000  0.000000
H  5.058000  -0.011000  0.000000
H  12.631000  -0.009000  0.000000
C  16.391568  10.553000  -0.221382
C  16.391568  12.029000  -0.172075
C  17.670751  12.724286  -0.182093
C  17.670751  8.371221  -0.526574
C  17.670751  9.823667  -0.264113
C  18.905140  10.553000  -0.208794
C  18.905140  12.029000  -0.173930
C  17.670751  4.000000  -0.277486
C  17.670751  5.453610  -0.531946
C  18.905140  6.197900  -0.650783
C  18.905140  7.631998  -0.669056
C  20.154752  8.371221  -0.318621
C  20.154752  9.823667  -0.134458
C  18.905140  3.272000  -0.200722
C  20.154752  4.000000  -0.130266
C  20.154752  5.453610  -0.320889
C  21.411000  6.197900  0.008546
C  21.411000  7.631998  0.003426
C  17.670751  1.101000  -0.171636
C  18.905140  1.797813  -0.160230
C  5.067250  5.453610  -0.555773
C  5.067250  4.000000  -0.568174
C  3.815571  3.272000  -0.427079
C  3.815571  1.797813  -0.177987
C  11.361143  3.272000  -0.477908
C  2.546438  1.101000  -0.107038
C  3.815571  7.631998  -0.493623
C  3.815571  6.197900  -0.516639
C  11.361143  7.631998  -0.512616
C  2.546438  5.453610  -0.570326
C  11.361143  6.197900  -0.525365
C  2.546438  4.000000  -0.481047
C  10.098375  5.453610  -0.276515
C  16.391568  3.272000  -0.236405
C  1.302141  3.272000  -0.287646
C  10.098375  4.000000  -0.508099
C  16.391568  1.797813  -0.184943
C  1.302141  1.797813  -0.234126
C  8.830644  3.272000  -0.606661
C  15.145562  1.101000  -0.087028
C  0.021251  1.101000  -0.200259
C  11.361143  12.029000  -0.184352
C  2.546438  9.823667  -0.432664
C  11.361143  10.553000  -0.408236
C  2.546438  8.371221  -0.536188
C  10.098375  9.823667  -0.444584
C  16.391568  7.631998  -0.587084
C  1.302141  7.631998  -0.655877
C  10.098375  8.371221  -0.249221
C  16.391568  6.197900  -0.609261
C  1.302141  6.197900  -0.660882
C  15.145562  5.453610  -0.517046
C  0.021251  5.453610  -0.598061
C  8.830644  7.631998  -0.073327
C  8.830644  6.197900  -0.094098
C  15.145562  4.000000  -0.436966
C  0.021251  4.000000  -0.335966
C  7.582124  5.453610  -0.283794
C  13.876357  3.272000  -0.410493
C  -1.214289  3.272000  -0.278895
C  7.582124  4.000000  -0.533183
C  13.876357  1.797813  -0.181371
C  -1.214289  1.797813  -0.189501
C  10.098375  12.724286  -0.208486
C  1.302141  10.553000  -0.245764
C  8.830644  12.029000  -0.377014
C  15.145562  9.823667  -0.406574
C  0.021251  9.823667  -0.322027
C  8.830644  10.553000  -0.512200
C  15.145562  8.371221  -0.498457
C  0.021251  8.371221  -0.589061
C  7.582124  9.823667  -0.440711
C  13.876357  7.631998  -0.483883
C  -1.214289  7.631998  -0.752270
C  7.582124  8.371221  -0.246292
C  13.876357  6.197900  -0.497903
C  -1.214289  6.197900  -0.750011
C  6.330357  7.631998  -0.522938
C  12.623562  5.453610  -0.542089
C  -2.463372  5.453610  -0.408649
C  6.330357  6.197900  -0.542867
C  12.623562  4.000000  -0.557272
C  -2.463372  4.000000  -0.208229
C  7.582124  12.724286  -0.196784
C  13.876357  10.553000  -0.368776
C  -1.214289  10.553000  -0.267631
C  6.330357  12.029000  -0.164415
C  12.623562  9.823667  -0.499844
C  -2.463372  9.823667  -0.208091
C  6.330357  10.553000  -0.405096
C  12.623562  8.371221  -0.518852
C  -2.463372  8.371221  -0.414553
C  5.067250  9.823667  -0.510666
C  -3.721000  7.631998  -0.118342
C  5.067250  8.371221  -0.533737
C  -3.721000  6.197900  -0.117459
C  5.067250  12.724286  -0.009458
C  3.815571  12.029000  -0.083122
C  3.815571  10.553000  -0.373579
C  2.546438  12.724286  -0.027132
C  1.302141  12.029000  -0.182331
C  6.330357  3.272000  -0.489745
C  15.145562  12.724286  -0.039166
C  0.021251  12.724286  -0.182033
C  13.876357  12.029000  -0.104277
C  -1.214289  12.029000  -0.205954
C  12.623562  12.724286  -0.045003
C  6.330357  1.797813  -0.291088
C  8.830644  1.797813  -0.505453
C  11.361143  1.797813  -0.294228
C  10.098375  1.101000  -0.345448
C  7.582124  1.101000  -0.337889
C  5.067250  1.101000  -0.133253
C  12.623562  1.101000  -0.137003
