142
frame	191
H  17.693000  13.826000  0.000000
H  19.858000  12.564000  0.000000
H  21.106000  10.363000  0.000000
H  22.366000  5.656000  0.000000
H  22.367000  8.165000  0.000000
H  19.852000  1.261000  0.000000
H  17.690000  -0.000000  0.000000
H  21.104000  3.459000  0.000000
H  2.530000  -0.005000  0.000000
H  15.160000  -0.002000  0.000000
H  0.000000  -0.000000  0.000000
H  -2.163000  1.262000  0.000000
H  -3.415000  3.463000  0.000000
H  -4.677000  8.168000  0.000000
H  -4.678000  5.662000  0.000000
H  -2.159000  12.565000  0.000000
H  10.109000  13.837000  0.000000
H  7.585000  13.838000  0.000000
H  5.062000  13.833000  0.000000
H  2.535000  13.828000  0.000000
H  15.163000  13.830000  0.000000
H  0.007000  13.825000  0.000000
H  -3.412000  10.366000  0.000000
H  12.635000  13.835000  0.000000
H  10.108000  -0.010000  0.000000
H  7.583000  -0.012000  0.000000
H  5.058000  -0.011000  0.000000
H  12.631000  -0.009000  0.000000
C  16.391568  10.553000  -0.015795
C  16.391568  12.029000  -0.050399
C  17.670751  12.724286  0.039482
C  17.670751  8.371221  0.069340
C  17.670751  9.823667  0.234682
C  18.905140  10.553000  0.356268
C  18.905140  12.029000  0.149629
C  17.670751  4.000000  0.238402
C  17.670751  5.453610  0.085260
C  18.905140  6.197900  0.132210
C  18.905140  7.631998  0.113188
C  20.154752  8.371221  0.363330
C  20.154752  9.823667  0.406993
C  18.905140  3.272000  0.350026
C  20.154752  4.000000  0.422338
C  20.154752  5.453610  0.373241
C  21.411000  6.197900  0.397706
C  21.411000  7.631998  0.402508
C  17.670751  1.101000  0.034175
C  18.905140  1.797813  0.162589
C  5.067250  5.453610  -0.497038
C  5.067250  4.000000  -0.637056
C  3.815571  3.272000  -0.496704
C  3.815571  1.797813  -0.348232
C  11.361143  3.272000  -0.648457
C  2.546438  1.101000  -0.184236
C  3.815571  7.631998  -0.287364
C  3.815571  6.197900  -0.307321
C  11.361143  7.631998  -0.494490
C  2.546438  5.453610  -0.244769
C  11.361143  6.197900  -0.512864
C  2.546438  4.000000  -0.308095
C  10.098375  5.453610  -0.679287
C  16.391568  3.272000  -0.025553
C  1.302141  3.272000  -0.029786
C  10.098375  4.000000  -0.660442
C  16.391568  1.797813  -0.069282
C  1.302141  1.797813  -0.079833
C  8.830644  3.272000  -0.640128
C  15.145562  1.101000  -0.186530
C  0.021251  1.101000  0.021665
C  11.361143  12.029000  -0.370505
C  2.546438  9.823667  -0.274283
C  11.361143  10.553000  -0.589686
C  2.546438  8.371221  -0.227457
C  10.098375  9.823667  -0.608130
C  16.391568  7.631998  -0.085754
C  1.302141  7.631998  -0.096131
C  10.098375  8.371221  -0.629643
C  16.391568  6.197900  -0.095001
C  1.302141  6.197900  -0.090199
C  15.145562  5.453610  -0.236716
C  0.021251  5.453610  0.060332
C  8.830644  7.631998  -0.714898
C  8.830644  6.197900  -0.729973
C  15.145562  4.000000  -0.308136
C  0.021251  4.000000  0.218044
C  7.582124  5.453610  -0.678229
C  13.876357  3.272000  -0.486563
C  -1.214289  3.272000  0.316977
C  7.582124  4.000000  -0.659087
C  13.876357  1.797813  -0.354687
C  -1.214289  1.797813  0.128814
C  10.098375  12.724286  -0.173604
C  1.302141  10.553000  0.009252
C  8.830644  12.029000  -0.328499
C  15.145562  9.823667  -0.275334
C  0.021251  9.823667  0.231129
C  8.830644  10.553000  -0.564008
C  15.145562  8.371221  -0.222285
C  0.021251  8.371221  0.063334
C  7.582124  9.823667  -0.591750
C  13.876357  7.631998  -0.294122
C  -1.214289  7.631998  0.080291
C  7.582124  8.371221  -0.639775
C  13.876357  6.197900  -0.309710
C  -1.214289  6.197900  0.075196
C  6.330357  7.631998  -0.489961
C  12.623562  5.453610  -0.511043
C  -2.463372  5.453610  0.305627
C  6.330357  6.197900  -0.512233
C  12.623562  4.000000  -0.631105
C  -2.463372  4.000000  0.364247
C  7.582124  12.724286  -0.157240
C  13.876357  10.553000  -0.460054
C  -1.214289  10.553000  0.309825
C  6.330357  12.029000  -0.345470
C  12.623562  9.823667  -0.588823
C  -2.463372  9.823667  0.353836
C  6.330357  10.553000  -0.576245
C  12.623562  8.371221  -0.474754
C  -2.463372  8.371221  0.304720
C  5.067250  9.823667  -0.572422
C  -3.721000  7.631998  0.297992
C  5.067250  8.371221  -0.471598
C  -3.721000  6.197900  0.305345
C  5.067250  12.724286  -0.142888
C  3.815571  12.029000  -0.261453
C  3.815571  10.553000  -0.432809
C  2.546438  12.724286  -0.116582
C  1.302141  12.029000  -0.028908
C  6.330357  3.272000  -0.646240
C  15.145562  12.724286  -0.154910
C  0.021251  12.724286  0.064633
C  13.876357  12.029000  -0.296210
C  -1.214289  12.029000  0.140390
C  12.623562  12.724286  -0.171353
C  6.330357  1.797813  -0.455456
C  8.830644  1.797813  -0.448306
C  11.361143  1.797813  -0.463870
C  10.098375  1.101000  -0.303270
C  7.582124  1.101000  -0.301298
C  5.067250  1.101000  -0.258079
C  12.623562  1.101000  -0.266091
