142
frame	780
H  17.693000  13.826000  0.000000
H  19.858000  12.564000  0.000000
H  21.106000  10.363000  0.000000
H  22.366000  5.656000  0.000000
H  22.367000  8.165000  0.000000
H  19.852000  1.261000  0.000000
H  17.690000  -0.000000  0.000000
H  21.104000  3.459000  0.000000
H  2.530000  -0.005000  0.000000
H  15.160000  -0.002000  0.000000
H  0.000000  -0.000000  0.000000
H  -2.163000  1.262000  0.000000
H  -3.415000  3.463000  0.000000
H  -4.677000  8.168000  0.000000
H  -4.678000  5.662000  0.000000
H  -2.159000  12.565000  0.000000
H  10.109000  13.837000  0.000000
H  7.585000  13.838000  0.000000
H  5.062000  13.833000  0.000000
H  2.535000  13.828000  0.000000
H  15.163000  13.830000  0.000000
H  0.007000  13.825000  0.000000
H  -3.412000  10.366000  0.000000
H  12.635000  13.835000  0.000000
H  10.108000  -0.010000  0.000000
H  7.583000  -0.012000  0.000000
H  5.058000  -0.011000  0.000000
H  12.631000  -0.009000  0.000000
C  16.391568  10.553000  0.363017
C  16.391568  12.029000  0.185368
C  17.670751  12.724286  -0.020395
C  17.670751  8.371221  0.576753
C  17.670751  9.823667  0.440155
C  18.905140  10.553000  0.093052
C  18.905140  12.029000  -0.094006
C  17.670751  4.000000  0.429623
C  17.670751  5.453610  0.571115
C  18.905140  6.197900  0.396045
C  18.905140  7.631998  0.377352
C  20.154752  8.371221  0.301048
C  20.154752  9.823667  0.093169
C  18.905140  3.272000  0.100352
C  20.154752  4.000000  0.104623
C  20.154752  5.453610  0.302624
C  21.411000  6.197900  0.410130
C  21.411000  7.631998  0.410175
C  17.670751  1.101000  -0.010043
C  18.905140  1.797813  -0.082574
C  5.067250  5.453610  0.420406
C  5.067250  4.000000  0.377521
C  3.815571  3.272000  0.250005
C  3.815571  1.797813  0.163531
C  11.361143  3.272000  0.314254
C  2.546438  1.101000  0.168004
C  3.815571  7.631998  0.498099
C  3.815571  6.197900  0.487837
C  11.361143  7.631998  0.353248
C  2.546438  5.453610  0.476314
C  11.361143  6.197900  0.331755
C  2.546438  4.000000  0.356200
C  10.098375  5.453610  0.377982
C  16.391568  3.272000  0.342474
C  1.302141  3.272000  0.354193
C  10.098375  4.000000  0.286992
C  16.391568  1.797813  0.154359
C  1.302141  1.797813  0.169933
C  8.830644  3.272000  0.184517
C  15.145562  1.101000  0.171130
C  0.021251  1.101000  -0.012686
C  11.361143  12.029000  0.136866
C  2.546438  9.823667  0.405188
C  11.361143  10.553000  0.388094
C  2.546438  8.371221  0.505971
C  10.098375  9.823667  0.367013
C  16.391568  7.631998  0.701628
C  1.302141  7.631998  0.723200
C  10.098375  8.371221  0.421627
C  16.391568  6.197900  0.714336
C  1.302141  6.197900  0.718957
C  15.145562  5.453610  0.460871
C  0.021251  5.453610  0.563672
C  8.830644  7.631998  0.448064
C  8.830644  6.197900  0.447830
C  15.145562  4.000000  0.343498
C  0.021251  4.000000  0.425036
C  7.582124  5.453610  0.409079
C  13.876357  3.272000  0.232165
C  -1.214289  3.272000  0.057145
C  7.582124  4.000000  0.316412
C  13.876357  1.797813  0.144742
C  -1.214289  1.797813  -0.119063
C  10.098375  12.724286  0.073349
C  1.302141  10.553000  0.401687
C  8.830644  12.029000  0.119679
C  15.145562  9.823667  0.371546
C  0.021251  9.823667  0.455541
C  8.830644  10.553000  0.286668
C  15.145562  8.371221  0.469229
C  0.021251  8.371221  0.573481
C  7.582124  9.823667  0.394521
C  13.876357  7.631998  0.448561
C  -1.214289  7.631998  0.367323
C  7.582124  8.371221  0.433049
C  13.876357  6.197900  0.450293
C  -1.214289  6.197900  0.359048
C  6.330357  7.631998  0.390824
C  12.623562  5.453610  0.385564
C  -2.463372  5.453610  0.243114
C  6.330357  6.197900  0.380745
C  12.623562  4.000000  0.363694
C  -2.463372  4.000000  0.043088
C  7.582124  12.724286  0.096108
C  13.876357  10.553000  0.276311
C  -1.214289  10.553000  0.067670
C  6.330357  12.029000  0.167390
C  12.623562  9.823667  0.403014
C  -2.463372  9.823667  0.040715
C  6.330357  10.553000  0.430234
C  12.623562  8.371221  0.406697
C  -2.463372  8.371221  0.244853
C  5.067250  9.823667  0.432129
C  -3.721000  7.631998  0.309226
C  5.067250  8.371221  0.464913
C  -3.721000  6.197900  0.321136
C  5.067250  12.724286  0.120367
C  3.815571  12.029000  0.263638
C  3.815571  10.553000  0.320373
C  2.546438  12.724286  0.256728
C  1.302141  12.029000  0.214656
C  6.330357  3.272000  0.335456
C  15.145562  12.724286  0.220381
C  0.021251  12.724286  0.018730
C  13.876357  12.029000  0.212713
C  -1.214289  12.029000  -0.127728
C  12.623562  12.724286  0.085282
C  6.330357  1.797813  0.034114
C  8.830644  1.797813  -0.011653
C  11.361143  1.797813  0.030056
C  10.098375  1.101000  -0.062971
C  7.582124  1.101000  -0.050455
C  5.067250  1.101000  0.000482
C  12.623562  1.101000  -0.022283
