142
frame	887
H  17.693000  13.826000  0.000000
H  19.858000  12.564000  0.000000
H  21.106000  10.363000  0.000000
H  22.366000  5.656000  0.000000
H  22.367000  8.165000  0.000000
H  19.852000  1.261000  0.000000
H  17.690000  -0.000000  0.000000
H  21.104000  3.459000  0.000000
H  2.530000  -0.005000  0.000000
H  15.160000  -0.002000  0.000000
H  0.000000  -0.000000  0.000000
H  -2.163000  1.262000  0.000000
H  -3.415000  3.463000  0.000000
H  -4.677000  8.168000  0.000000
H  -4.678000  5.662000  0.000000
H  -2.159000  12.565000  0.000000
H  10.109000  13.837000  0.000000
H  7.585000  13.838000  0.000000
H  5.062000  13.833000  0.000000
H  2.535000  13.828000  0.000000
H  15.163000  13.830000  0.000000
H  0.007000  13.825000  0.000000
H  -3.412000  10.366000  0.000000
H  12.635000  13.835000  0.000000
H  10.108000  -0.010000  0.000000
H  7.583000  -0.012000  0.000000
H  5.058000  -0.011000  0.000000
H  12.631000  -0.009000  0.000000
C  16.391568  10.553000  0.320259
C  16.391568  12.029000  0.229956
C  17.670751  12.724286  0.141278
C  17.670751  8.371221  0.185460
C  17.670751  9.823667  0.064648
C  18.905140  10.553000  -0.069987
C  18.905140  12.029000  0.042451
C  17.670751  4.000000  0.056284
C  17.670751  5.453610  0.170574
C  18.905140  6.197900  0.141935
C  18.905140  7.631998  0.152919
C  20.154752  8.371221  0.040723
C  20.154752  9.823667  -0.023081
C  18.905140  3.272000  -0.072988
C  20.154752  4.000000  -0.011371
C  20.154752  5.453610  0.049431
C  21.411000  6.197900  0.017868
C  21.411000  7.631998  0.018646
C  17.670751  1.101000  0.125186
C  18.905140  1.797813  0.057856
C  5.067250  5.453610  0.527695
C  5.067250  4.000000  0.470352
C  3.815571  3.272000  0.525671
C  3.815571  1.797813  0.349599
C  11.361143  3.272000  0.502614
C  2.546438  1.101000  0.195088
C  3.815571  7.631998  0.315369
C  3.815571  6.197900  0.298496
C  11.361143  7.631998  0.870736
C  2.546438  5.453610  0.368057
C  11.361143  6.197900  0.849783
C  2.546438  4.000000  0.479854
C  10.098375  5.453610  0.920614
C  16.391568  3.272000  0.302413
C  1.302141  3.272000  0.327127
C  10.098375  4.000000  0.767369
C  16.391568  1.797813  0.210742
C  1.302141  1.797813  0.236056
C  8.830644  3.272000  0.627526
C  15.145562  1.101000  0.158248
C  0.021251  1.101000  0.134813
C  11.361143  12.029000  0.319766
C  2.546438  9.823667  0.521688
C  11.361143  10.553000  0.573210
C  2.546438  8.371221  0.389829
C  10.098375  9.823667  0.824359
C  16.391568  7.631998  0.241196
C  1.302141  7.631998  0.231215
C  10.098375  8.371221  0.954319
C  16.391568  6.197900  0.214854
C  1.302141  6.197900  0.225119
C  15.145562  5.453610  0.345458
C  0.021251  5.453610  0.159729
C  8.830644  7.631998  0.915502
C  8.830644  6.197900  0.887557
C  15.145562  4.000000  0.449709
C  0.021251  4.000000  0.047621
C  7.582124  5.453610  0.910667
C  13.876357  3.272000  0.503952
C  -1.214289  3.272000  -0.088377
C  7.582124  4.000000  0.760808
C  13.876357  1.797813  0.313076
C  -1.214289  1.797813  0.028378
C  10.098375  12.724286  0.177514
C  1.302141  10.553000  0.351241
C  8.830644  12.029000  0.311608
C  15.145562  9.823667  0.490759
C  0.021251  9.823667  0.060117
C  8.830644  10.553000  0.702009
C  15.145562  8.371221  0.379338
C  0.021251  8.371221  0.185603
C  7.582124  9.823667  0.831803
C  13.876357  7.631998  0.305041
C  -1.214289  7.631998  0.112349
C  7.582124  8.371221  0.957253
C  13.876357  6.197900  0.291103
C  -1.214289  6.197900  0.113124
C  6.330357  7.631998  0.881646
C  12.623562  5.453610  0.508464
C  -2.463372  5.453610  -0.013868
C  6.330357  6.197900  0.863986
C  12.623562  4.000000  0.451689
C  -2.463372  4.000000  -0.077055
C  7.582124  12.724286  0.199158
C  13.876357  10.553000  0.555763
C  -1.214289  10.553000  -0.104998
C  6.330357  12.029000  0.344075
C  12.623562  9.823667  0.510288
C  -2.463372  9.823667  -0.076767
C  6.330357  10.553000  0.575792
C  12.623562  8.371221  0.532845
C  -2.463372  8.371221  -0.006469
C  5.067250  9.823667  0.503348
C  -3.721000  7.631998  -0.074642
C  5.067250  8.371221  0.533768
C  -3.721000  6.197900  -0.070478
C  5.067250  12.724286  0.269312
C  3.815571  12.029000  0.432220
C  3.815571  10.553000  0.582152
C  2.546438  12.724286  0.256023
C  1.302141  12.029000  0.265232
C  6.330357  3.272000  0.501537
C  15.145562  12.724286  0.214898
C  0.021251  12.724286  0.159585
C  13.876357  12.029000  0.371644
C  -1.214289  12.029000  0.027973
C  12.623562  12.724286  0.238153
C  6.330357  1.797813  0.220378
C  8.830644  1.797813  0.195814
C  11.361143  1.797813  0.220911
C  10.098375  1.101000  0.034514
C  7.582124  1.101000  0.050514
C  5.067250  1.101000  0.151750
C  12.623562  1.101000  0.150580
