142
frame	963
H  17.693000  13.826000  0.000000
H  19.858000  12.564000  0.000000
H  21.106000  10.363000  0.000000
H  22.366000  5.656000  0.000000
H  22.367000  8.165000  0.000000
H  19.852000  1.261000  0.000000
H  17.690000  -0.000000  0.000000
H  21.104000  3.459000  0.000000
H  2.530000  -0.005000  0.000000
H  15.160000  -0.002000  0.000000
H  0.000000  -0.000000  0.000000
H  -2.163000  1.262000  0.000000
H  -3.415000  3.463000  0.000000
H  -4.677000  8.168000  0.000000
H  -4.678000  5.662000  0.000000
H  -2.159000  12.565000  0.000000
H  10.109000  13.837000  0.000000
H  7.585000  13.838000  0.000000
H  5.062000  13.833000  0.000000
H  2.535000  13.828000  0.000000
H  15.163000  13.830000  0.000000
H  0.007000  13.825000  0.000000
H  -3.412000  10.366000  0.000000
H  12.635000  13.835000  0.000000
H  10.108000  -0.010000  0.000000
H  7.583000  -0.012000  0.000000
H  5.058000  -0.011000  0.000000
H  12.631000  -0.009000  0.000000
C  16.391568  10.553000  0.100168
C  16.391568  12.029000  0.039182
C  17.670751  12.724286  0.095413
C  17.670751  8.371221  0.077811
C  17.670751  9.823667  0.076845
C  18.905140  10.553000  0.238073
C  18.905140  12.029000  0.207016
C  17.670751  4.000000  0.073857
C  17.670751  5.453610  0.070202
C  18.905140  6.197900  0.257301
C  18.905140  7.631998  0.266250
C  20.154752  8.371221  0.251973
C  20.154752  9.823667  0.204585
C  18.905140  3.272000  0.259861
C  20.154752  4.000000  0.214547
C  20.154752  5.453610  0.266258
C  21.411000  6.197900  0.255107
C  21.411000  7.631998  0.248323
C  17.670751  1.101000  0.090462
C  18.905140  1.797813  0.208363
C  5.067250  5.453610  0.676946
C  5.067250  4.000000  0.443786
C  3.815571  3.272000  0.139025
C  3.815571  1.797813  -0.056985
C  11.361143  3.272000  0.577959
C  2.546438  1.101000  -0.101084
C  3.815571  7.631998  0.425608
C  3.815571  6.197900  0.426025
C  11.361143  7.631998  0.931227
C  2.546438  5.453610  0.182846
C  11.361143  6.197900  0.920344
C  2.546438  4.000000  0.177832
C  10.098375  5.453610  0.778602
C  16.391568  3.272000  0.092030
C  1.302141  3.272000  0.088628
C  10.098375  4.000000  0.827931
C  16.391568  1.797813  0.005107
C  1.302141  1.797813  0.013619
C  8.830644  3.272000  0.785621
C  15.145562  1.101000  -0.108606
C  0.021251  1.101000  0.075602
C  11.361143  12.029000  0.438490
C  2.546438  9.823667  0.216349
C  11.361143  10.553000  0.650487
C  2.546438  8.371221  0.203195
C  10.098375  9.823667  0.885144
C  16.391568  7.631998  0.087078
C  1.302141  7.631998  0.077266
C  10.098375  8.371221  0.815026
C  16.391568  6.197900  0.072990
C  1.302141  6.197900  0.068542
C  15.145562  5.453610  0.197534
C  0.021251  5.453610  0.064376
C  8.830644  7.631998  0.659935
C  8.830644  6.197900  0.629710
C  15.145562  4.000000  0.187037
C  0.021251  4.000000  0.070090
C  7.582124  5.453610  0.800944
C  13.876357  3.272000  0.134604
C  -1.214289  3.272000  0.214038
C  7.582124  4.000000  0.829812
C  13.876357  1.797813  -0.052753
C  -1.214289  1.797813  0.181203
C  10.098375  12.724286  0.343972
C  1.302141  10.553000  0.111934
C  8.830644  12.029000  0.544655
C  15.145562  9.823667  0.204373
C  0.021251  9.823667  0.055009
C  8.830644  10.553000  0.860875
C  15.145562  8.371221  0.211005
C  0.021251  8.371221  0.050978
C  7.582124  9.823667  0.897705
C  13.876357  7.631998  0.436777
C  -1.214289  7.631998  0.208840
C  7.582124  8.371221  0.840940
C  13.876357  6.197900  0.420697
C  -1.214289  6.197900  0.199772
C  6.330357  7.631998  0.941529
C  12.623562  5.453610  0.672110
C  -2.463372  5.453610  0.173942
C  6.330357  6.197900  0.925516
C  12.623562  4.000000  0.444628
C  -2.463372  4.000000  0.150340
C  7.582124  12.724286  0.369944
C  13.876357  10.553000  0.185290
C  -1.214289  10.553000  0.202173
C  6.330357  12.029000  0.467684
C  12.623562  9.823667  0.482146
C  -2.463372  9.823667  0.129622
C  6.330357  10.553000  0.649053
C  12.623562  8.371221  0.686227
C  -2.463372  8.371221  0.165682
C  5.067250  9.823667  0.490274
C  -3.721000  7.631998  0.125367
C  5.067250  8.371221  0.686506
C  -3.721000  6.197900  0.130582
C  5.067250  12.724286  0.205756
C  3.815571  12.029000  0.018801
C  3.815571  10.553000  0.189576
C  2.546438  12.724286  -0.034815
C  1.302141  12.029000  0.054747
C  6.330357  3.272000  0.590452
C  15.145562  12.724286  -0.050282
C  0.021251  12.724286  0.108350
C  13.876357  12.029000  0.002828
C  -1.214289  12.029000  0.193527
C  12.623562  12.724286  0.173522
C  6.330357  1.797813  0.353176
C  8.830644  1.797813  0.418119
C  11.361143  1.797813  0.338736
C  10.098375  1.101000  0.201888
C  7.582124  1.101000  0.223062
C  5.067250  1.101000  0.087556
C  12.623562  1.101000  0.090461
