142
frame	708
H  17.693000  13.826000  0.000000
H  19.858000  12.564000  0.000000
H  21.106000  10.363000  0.000000
H  22.366000  5.656000  0.000000
H  22.367000  8.165000  0.000000
H  19.852000  1.261000  0.000000
H  17.690000  -0.000000  0.000000
H  21.104000  3.459000  0.000000
H  2.530000  -0.005000  0.000000
H  15.160000  -0.002000  0.000000
H  0.000000  -0.000000  0.000000
H  -2.163000  1.262000  0.000000
H  -3.415000  3.463000  0.000000
H  -4.677000  8.168000  0.000000
H  -4.678000  5.662000  0.000000
H  -2.159000  12.565000  0.000000
H  10.109000  13.837000  0.000000
H  7.585000  13.838000  0.000000
H  5.062000  13.833000  0.000000
H  2.535000  13.828000  0.000000
H  15.163000  13.830000  0.000000
H  0.007000  13.825000  0.000000
H  -3.412000  10.366000  0.000000
H  12.635000  13.835000  0.000000
H  10.108000  -0.010000  0.000000
H  7.583000  -0.012000  0.000000
H  5.058000  -0.011000  0.000000
H  12.631000  -0.009000  0.000000
C  16.391568  10.553000  0.486082
C  16.391568  12.029000  0.445541
C  17.670751  12.724286  0.259192
C  17.670751  8.371221  0.640444
C  17.670751  9.823667  0.747279
C  18.905140  10.553000  0.565704
C  18.905140  12.029000  0.267163
C  17.670751  4.000000  0.749478
C  17.670751  5.453610  0.655180
C  18.905140  6.197900  0.563372
C  18.905140  7.631998  0.563597
C  20.154752  8.371221  0.523997
C  20.154752  9.823667  0.454791
C  18.905140  3.272000  0.568503
C  20.154752  4.000000  0.462367
C  20.154752  5.453610  0.537799
C  21.411000  6.197900  0.522431
C  21.411000  7.631998  0.511282
C  17.670751  1.101000  0.268532
C  18.905140  1.797813  0.277684
C  5.067250  5.453610  0.235486
C  5.067250  4.000000  0.215487
C  3.815571  3.272000  0.084825
C  3.815571  1.797813  0.052452
C  11.361143  3.272000  0.115470
C  2.546438  1.101000  0.164826
C  3.815571  7.631998  0.248391
C  3.815571  6.197900  0.234870
C  11.361143  7.631998  0.165627
C  2.546438  5.453610  0.183031
C  11.361143  6.197900  0.150235
C  2.546438  4.000000  0.161738
C  10.098375  5.453610  0.022316
C  16.391568  3.272000  0.471006
C  1.302141  3.272000  0.477230
C  10.098375  4.000000  0.099302
C  16.391568  1.797813  0.439224
C  1.302141  1.797813  0.433608
C  8.830644  3.272000  0.001187
C  15.145562  1.101000  0.162623
C  0.021251  1.101000  0.258147
C  11.361143  12.029000  0.067258
C  2.546438  9.823667  0.192362
C  11.361143  10.553000  0.186318
C  2.546438  8.371221  0.203137
C  10.098375  9.823667  0.160721
C  16.391568  7.631998  0.356039
C  1.302141  7.631998  0.359920
C  10.098375  8.371221  0.058520
C  16.391568  6.197900  0.357114
C  1.302141  6.197900  0.352817
C  15.145562  5.453610  0.154026
C  0.021251  5.453610  0.632845
C  8.830644  7.631998  -0.021550
C  8.830644  6.197900  -0.044629
C  15.145562  4.000000  0.137606
C  0.021251  4.000000  0.745109
C  7.582124  5.453610  0.028576
C  13.876357  3.272000  0.069334
C  -1.214289  3.272000  0.542529
C  7.582124  4.000000  0.094522
C  13.876357  1.797813  0.031273
C  -1.214289  1.797813  0.257286
C  10.098375  12.724286  0.113012
C  1.302141  10.553000  0.523217
C  8.830644  12.029000  0.173879
C  15.145562  9.823667  0.152222
C  0.021251  9.823667  0.760825
C  8.830644  10.553000  0.094886
C  15.145562  8.371221  0.166005
C  0.021251  8.371221  0.632250
C  7.582124  9.823667  0.178851
C  13.876357  7.631998  0.195190
C  -1.214289  7.631998  0.490011
C  7.582124  8.371221  0.076720
C  13.876357  6.197900  0.183746
C  -1.214289  6.197900  0.490934
C  6.330357  7.631998  0.175216
C  12.623562  5.453610  0.197924
C  -2.463372  5.453610  0.458380
C  6.330357  6.197900  0.156011
C  12.623562  4.000000  0.202301
C  -2.463372  4.000000  0.393365
C  7.582124  12.724286  0.142611
C  13.876357  10.553000  0.104842
C  -1.214289  10.553000  0.541516
C  6.330357  12.029000  0.126968
C  12.623562  9.823667  0.236244
C  -2.463372  9.823667  0.387936
C  6.330357  10.553000  0.235295
C  12.623562  8.371221  0.233944
C  -2.463372  8.371221  0.438395
C  5.067250  9.823667  0.295681
C  -3.721000  7.631998  0.392714
C  5.067250  8.371221  0.280565
C  -3.721000  6.197900  0.388937
C  5.067250  12.724286  0.003420
C  3.815571  12.029000  0.134343
C  3.815571  10.553000  0.150389
C  2.546438  12.724286  0.250211
C  1.302141  12.029000  0.502138
C  6.330357  3.272000  0.134682
C  15.145562  12.724286  0.193071
C  0.021251  12.724286  0.277383
C  13.876357  12.029000  0.090219
C  -1.214289  12.029000  0.262070
C  12.623562  12.724286  -0.060589
C  6.330357  1.797813  0.000350
C  8.830644  1.797813  0.054243
C  11.361143  1.797813  -0.025220
C  10.098375  1.101000  -0.017832
C  7.582124  1.101000  0.006503
C  5.067250  1.101000  -0.121869
C  12.623562  1.101000  -0.159667
