142
frame	690
H  17.693000  13.826000  0.000000
H  19.858000  12.564000  0.000000
H  21.106000  10.363000  0.000000
H  22.366000  5.656000  0.000000
H  22.367000  8.165000  0.000000
H  19.852000  1.261000  0.000000
H  17.690000  -0.000000  0.000000
H  21.104000  3.459000  0.000000
H  2.530000  -0.005000  0.000000
H  15.160000  -0.002000  0.000000
H  0.000000  -0.000000  0.000000
H  -2.163000  1.262000  0.000000
H  -3.415000  3.463000  0.000000
H  -4.677000  8.168000  0.000000
H  -4.678000  5.662000  0.000000
H  -2.159000  12.565000  0.000000
H  10.109000  13.837000  0.000000
H  7.585000  13.838000  0.000000
H  5.062000  13.833000  0.000000
H  2.535000  13.828000  0.000000
H  15.163000  13.830000  0.000000
H  0.007000  13.825000  0.000000
H  -3.412000  10.366000  0.000000
H  12.635000  13.835000  0.000000
H  10.108000  -0.010000  0.000000
H  7.583000  -0.012000  0.000000
H  5.058000  -0.011000  0.000000
H  12.631000  -0.009000  0.000000
C  16.391568  10.553000  0.490407
C  16.391568  12.029000  0.374303
C  17.670751  12.724286  0.268625
C  17.670751  8.371221  0.564526
C  17.670751  9.823667  0.576185
C  18.905140  10.553000  0.475928
C  18.905140  12.029000  0.260924
C  17.670751  4.000000  0.574692
C  17.670751  5.453610  0.556988
C  18.905140  6.197900  0.632103
C  18.905140  7.631998  0.618263
C  20.154752  8.371221  0.536980
C  20.154752  9.823667  0.348366
C  18.905140  3.272000  0.486262
C  20.154752  4.000000  0.362303
C  20.154752  5.453610  0.546514
C  21.411000  6.197900  0.501218
C  21.411000  7.631998  0.488947
C  17.670751  1.101000  0.278075
C  18.905140  1.797813  0.284581
C  5.067250  5.453610  0.227135
C  5.067250  4.000000  0.093499
C  3.815571  3.272000  0.068522
C  3.815571  1.797813  -0.052873
C  11.361143  3.272000  0.082046
C  2.546438  1.101000  0.085370
C  3.815571  7.631998  0.196495
C  3.815571  6.197900  0.190265
C  11.361143  7.631998  0.124918
C  2.546438  5.453610  0.198867
C  11.361143  6.197900  0.119777
C  2.546438  4.000000  0.265732
C  10.098375  5.453610  -0.065191
C  16.391568  3.272000  0.499069
C  1.302141  3.272000  0.499272
C  10.098375  4.000000  0.034225
C  16.391568  1.797813  0.357877
C  1.302141  1.797813  0.362013
C  8.830644  3.272000  0.096104
C  15.145562  1.101000  0.067671
C  0.021251  1.101000  0.262384
C  11.361143  12.029000  0.048667
C  2.546438  9.823667  0.303626
C  11.361143  10.553000  0.156346
C  2.546438  8.371221  0.209466
C  10.098375  9.823667  0.106156
C  16.391568  7.631998  0.382500
C  1.302141  7.631998  0.400000
C  10.098375  8.371221  -0.038273
C  16.391568  6.197900  0.392099
C  1.302141  6.197900  0.395827
C  15.145562  5.453610  0.164370
C  0.021251  5.453610  0.524682
C  8.830644  7.631998  -0.252891
C  8.830644  6.197900  -0.272483
C  15.145562  4.000000  0.243142
C  0.021251  4.000000  0.552147
C  7.582124  5.453610  -0.061264
C  13.876357  3.272000  0.055176
C  -1.214289  3.272000  0.458565
C  7.582124  4.000000  0.040454
C  13.876357  1.797813  -0.061056
C  -1.214289  1.797813  0.270092
C  10.098375  12.724286  0.034596
C  1.302141  10.553000  0.537185
C  8.830644  12.029000  0.054440
C  15.145562  9.823667  0.253464
C  0.021251  9.823667  0.559644
C  8.830644  10.553000  0.184671
C  15.145562  8.371221  0.161265
C  0.021251  8.371221  0.528924
C  7.582124  9.823667  0.122827
C  13.876357  7.631998  0.155525
C  -1.214289  7.631998  0.563109
C  7.582124  8.371221  -0.017256
C  13.876357  6.197900  0.156463
C  -1.214289  6.197900  0.573969
C  6.330357  7.631998  0.146048
C  12.623562  5.453610  0.223523
C  -2.463372  5.453610  0.440377
C  6.330357  6.197900  0.129995
C  12.623562  4.000000  0.074090
C  -2.463372  4.000000  0.296992
C  7.582124  12.724286  0.069691
C  13.876357  10.553000  0.096305
C  -1.214289  10.553000  0.453136
C  6.330357  12.029000  0.115356
C  12.623562  9.823667  0.125298
C  -2.463372  9.823667  0.275886
C  6.330357  10.553000  0.201834
C  12.623562  8.371221  0.217739
C  -2.463372  8.371221  0.435695
C  5.067250  9.823667  0.171095
C  -3.721000  7.631998  0.362082
C  5.067250  8.371221  0.255502
C  -3.721000  6.197900  0.374209
C  5.067250  12.724286  0.082840
C  3.815571  12.029000  0.049969
C  3.815571  10.553000  0.143543
C  2.546438  12.724286  0.167025
C  1.302141  12.029000  0.411300
C  6.330357  3.272000  0.109467
C  15.145562  12.724286  0.126566
C  0.021251  12.724286  0.302922
C  13.876357  12.029000  0.004517
C  -1.214289  12.029000  0.278538
C  12.623562  12.724286  0.029734
C  6.330357  1.797813  -0.002735
C  8.830644  1.797813  -0.070756
C  11.361143  1.797813  -0.044359
C  10.098375  1.101000  -0.091910
C  7.582124  1.101000  -0.062536
C  5.067250  1.101000  -0.036930
C  12.623562  1.101000  -0.046810
