142
frame	992
H  17.693000  13.826000  0.000000
H  19.858000  12.564000  0.000000
H  21.106000  10.363000  0.000000
H  22.366000  5.656000  0.000000
H  22.367000  8.165000  0.000000
H  19.852000  1.261000  0.000000
H  17.690000  -0.000000  0.000000
H  21.104000  3.459000  0.000000
H  2.530000  -0.005000  0.000000
H  15.160000  -0.002000  0.000000
H  0.000000  -0.000000  0.000000
H  -2.163000  1.262000  0.000000
H  -3.415000  3.463000  0.000000
H  -4.677000  8.168000  0.000000
H  -4.678000  5.662000  0.000000
H  -2.159000  12.565000  0.000000
H  10.109000  13.837000  0.000000
H  7.585000  13.838000  0.000000
H  5.062000  13.833000  0.000000
H  2.535000  13.828000  0.000000
H  15.163000  13.830000  0.000000
H  0.007000  13.825000  0.000000
H  -3.412000  10.366000  0.000000
H  12.635000  13.835000  0.000000
H  10.108000  -0.010000  0.000000
H  7.583000  -0.012000  0.000000
H  5.058000  -0.011000  0.000000
H  12.631000  -0.009000  0.000000
C  16.391568  10.553000  -0.034199
C  16.391568  12.029000  -0.020251
C  17.670751  12.724286  -0.008462
C  17.670751  8.371221  0.283058
C  17.670751  9.823667  0.111899
C  18.905140  10.553000  -0.030036
C  18.905140  12.029000  -0.070845
C  17.670751  4.000000  0.102989
C  17.670751  5.453610  0.287112
C  18.905140  6.197900  0.341644
C  18.905140  7.631998  0.334767
C  20.154752  8.371221  0.248564
C  20.154752  9.823667  0.101255
C  18.905140  3.272000  -0.012204
C  20.154752  4.000000  0.125438
C  20.154752  5.453610  0.254657
C  21.411000  6.197900  0.276161
C  21.411000  7.631998  0.271108
C  17.670751  1.101000  -0.004320
C  18.905140  1.797813  -0.049118
C  5.067250  5.453610  0.575648
C  5.067250  4.000000  0.527922
C  3.815571  3.272000  0.215448
C  3.815571  1.797813  0.070934
C  11.361143  3.272000  0.466662
C  2.546438  1.101000  -0.032904
C  3.815571  7.631998  0.524530
C  3.815571  6.197900  0.513251
C  11.361143  7.631998  0.618176
C  2.546438  5.453610  0.214837
C  11.361143  6.197900  0.608744
C  2.546438  4.000000  0.060756
C  10.098375  5.453610  0.748934
C  16.391568  3.272000  -0.045655
C  1.302141  3.272000  -0.070847
C  10.098375  4.000000  0.608863
C  16.391568  1.797813  -0.026687
C  1.302141  1.797813  -0.043783
C  8.830644  3.272000  0.596374
C  15.145562  1.101000  -0.033456
C  0.021251  1.101000  -0.012690
C  11.361143  12.029000  0.276185
C  2.546438  9.823667  0.086158
C  11.361143  10.553000  0.533821
C  2.546438  8.371221  0.223799
C  10.098375  9.823667  0.677322
C  16.391568  7.631998  0.236977
C  1.302141  7.631998  0.229459
C  10.098375  8.371221  0.773786
C  16.391568  6.197900  0.232829
C  1.302141  6.197900  0.217302
C  15.145562  5.453610  0.207621
C  0.021251  5.453610  0.230146
C  8.830644  7.631998  0.896121
C  8.830644  6.197900  0.891271
C  15.145562  4.000000  0.054007
C  0.021251  4.000000  0.051984
C  7.582124  5.453610  0.756230
C  13.876357  3.272000  0.208662
C  -1.214289  3.272000  -0.079086
C  7.582124  4.000000  0.610224
C  13.876357  1.797813  0.069320
C  -1.214289  1.797813  -0.067256
C  10.098375  12.724286  0.340119
C  1.302141  10.553000  -0.047199
C  8.830644  12.029000  0.577244
C  15.145562  9.823667  0.090066
C  0.021251  9.823667  0.076188
C  8.830644  10.553000  0.693616
C  15.145562  8.371221  0.232080
C  0.021251  8.371221  0.245239
C  7.582124  9.823667  0.683460
C  13.876357  7.631998  0.532142
C  -1.214289  7.631998  0.288846
C  7.582124  8.371221  0.775888
C  13.876357  6.197900  0.524946
C  -1.214289  6.197900  0.283666
C  6.330357  7.631998  0.634442
C  12.623562  5.453610  0.580314
C  -2.463372  5.453610  0.187216
C  6.330357  6.197900  0.628255
C  12.623562  4.000000  0.526713
C  -2.463372  4.000000  0.046955
C  7.582124  12.724286  0.350225
C  13.876357  10.553000  0.250549
C  -1.214289  10.553000  -0.087540
C  6.330357  12.029000  0.289875
C  12.623562  9.823667  0.577855
C  -2.463372  9.823667  0.033745
C  6.330357  10.553000  0.551115
C  12.623562  8.371221  0.614844
C  -2.463372  8.371221  0.166765
C  5.067250  9.823667  0.569386
C  -3.721000  7.631998  0.161777
C  5.067250  8.371221  0.604450
C  -3.721000  6.197900  0.163019
C  5.067250  12.724286  0.056464
C  3.815571  12.029000  0.154387
C  3.815571  10.553000  0.258911
C  2.546438  12.724286  0.037244
C  1.302141  12.029000  -0.013987
C  6.330357  3.272000  0.471854
C  15.145562  12.724286  -0.007184
C  0.021251  12.724286  -0.006571
C  13.876357  12.029000  0.124304
C  -1.214289  12.029000  -0.095750
C  12.623562  12.724286  0.019014
C  6.330357  1.797813  0.181923
C  8.830644  1.797813  0.455368
C  11.361143  1.797813  0.187365
C  10.098375  1.101000  0.227267
C  7.582124  1.101000  0.212728
C  5.067250  1.101000  -0.048188
C  12.623562  1.101000  -0.069387
