142
frame	639
H  17.693000  13.826000  0.000000
H  19.858000  12.564000  0.000000
H  21.106000  10.363000  0.000000
H  22.366000  5.656000  0.000000
H  22.367000  8.165000  0.000000
H  19.852000  1.261000  0.000000
H  17.690000  -0.000000  0.000000
H  21.104000  3.459000  0.000000
H  2.530000  -0.005000  0.000000
H  15.160000  -0.002000  0.000000
H  0.000000  -0.000000  0.000000
H  -2.163000  1.262000  0.000000
H  -3.415000  3.463000  0.000000
H  -4.677000  8.168000  0.000000
H  -4.678000  5.662000  0.000000
H  -2.159000  12.565000  0.000000
H  10.109000  13.837000  0.000000
H  7.585000  13.838000  0.000000
H  5.062000  13.833000  0.000000
H  2.535000  13.828000  0.000000
H  15.163000  13.830000  0.000000
H  0.007000  13.825000  0.000000
H  -3.412000  10.366000  0.000000
H  12.635000  13.835000  0.000000
H  10.108000  -0.010000  0.000000
H  7.583000  -0.012000  0.000000
H  5.058000  -0.011000  0.000000
H  12.631000  -0.009000  0.000000
C  16.391568  10.553000  0.135061
C  16.391568  12.029000  -0.023489
C  17.670751  12.724286  -0.134676
C  17.670751  8.371221  0.462553
C  17.670751  9.823667  0.247462
C  18.905140  10.553000  0.155491
C  18.905140  12.029000  -0.088168
C  17.670751  4.000000  0.249092
C  17.670751  5.453610  0.484950
C  18.905140  6.197900  0.355852
C  18.905140  7.631998  0.347224
C  20.154752  8.371221  0.292731
C  20.154752  9.823667  0.227212
C  18.905140  3.272000  0.164821
C  20.154752  4.000000  0.242486
C  20.154752  5.453610  0.311832
C  21.411000  6.197900  0.342023
C  21.411000  7.631998  0.336982
C  17.670751  1.101000  -0.137085
C  18.905140  1.797813  -0.068581
C  5.067250  5.453610  -0.023334
C  5.067250  4.000000  0.057408
C  3.815571  3.272000  0.214538
C  3.815571  1.797813  0.145179
C  11.361143  3.272000  -0.143401
C  2.546438  1.101000  0.111338
C  3.815571  7.631998  0.295684
C  3.815571  6.197900  0.275944
C  11.361143  7.631998  -0.281029
C  2.546438  5.453610  0.380442
C  11.361143  6.197900  -0.295613
C  2.546438  4.000000  0.198232
C  10.098375  5.453610  -0.188719
C  16.391568  3.272000  0.122360
C  1.302141  3.272000  0.121088
C  10.098375  4.000000  -0.261522
C  16.391568  1.797813  -0.035914
C  1.302141  1.797813  -0.043377
C  8.830644  3.272000  -0.282320
C  15.145562  1.101000  0.090523
C  0.021251  1.101000  -0.157548
C  11.361143  12.029000  0.003503
C  2.546438  9.823667  0.238922
C  11.361143  10.553000  -0.097273
C  2.546438  8.371221  0.404829
C  10.098375  9.823667  -0.212985
C  16.391568  7.631998  0.618848
C  1.302141  7.631998  0.619850
C  10.098375  8.371221  -0.163575
C  16.391568  6.197900  0.621452
C  1.302141  6.197900  0.602648
C  15.145562  5.453610  0.386530
C  0.021251  5.453610  0.454481
C  8.830644  7.631998  0.044564
C  8.830644  6.197900  0.028053
C  15.145562  4.000000  0.202043
C  0.021251  4.000000  0.227390
C  7.582124  5.453610  -0.171423
C  13.876357  3.272000  0.202720
C  -1.214289  3.272000  0.131633
C  7.582124  4.000000  -0.252875
C  13.876357  1.797813  0.132386
C  -1.214289  1.797813  -0.100939
C  10.098375  12.724286  0.046107
C  1.302141  10.553000  0.158778
C  8.830644  12.029000  -0.010162
C  15.145562  9.823667  0.223208
C  0.021251  9.823667  0.247158
C  8.830644  10.553000  -0.216732
C  15.145562  8.371221  0.398549
C  0.021251  8.371221  0.460340
C  7.582124  9.823667  -0.205329
C  13.876357  7.631998  0.280147
C  -1.214289  7.631998  0.316348
C  7.582124  8.371221  -0.159211
C  13.876357  6.197900  0.260640
C  -1.214289  6.197900  0.327073
C  6.330357  7.631998  -0.254997
C  12.623562  5.453610  -0.045108
C  -2.463372  5.453610  0.218382
C  6.330357  6.197900  -0.272948
C  12.623562  4.000000  0.036149
C  -2.463372  4.000000  0.170872
C  7.582124  12.724286  0.043680
C  13.876357  10.553000  0.227963
C  -1.214289  10.553000  0.132346
C  6.330357  12.029000  0.023848
C  12.623562  9.823667  0.068727
C  -2.463372  9.823667  0.167798
C  6.330357  10.553000  -0.065896
C  12.623562  8.371221  -0.023625
C  -2.463372  8.371221  0.224702
C  5.067250  9.823667  0.115078
C  -3.721000  7.631998  0.228267
C  5.067250  8.371221  -0.002910
C  -3.721000  6.197900  0.234011
C  5.067250  12.724286  0.108744
C  3.815571  12.029000  0.229588
C  3.815571  10.553000  0.258770
C  2.546438  12.724286  0.183111
C  1.302141  12.029000  0.001606
C  6.330357  3.272000  -0.146084
C  15.145562  12.724286  0.130749
C  0.021251  12.724286  -0.139305
C  13.876357  12.029000  0.175911
C  -1.214289  12.029000  -0.111388
C  12.623562  12.724286  0.065216
C  6.330357  1.797813  -0.089900
C  8.830644  1.797813  -0.131116
C  11.361143  1.797813  -0.101224
C  10.098375  1.101000  -0.091694
C  7.582124  1.101000  -0.102359
C  5.067250  1.101000  -0.015214
C  12.623562  1.101000  -0.031689
