142
frame	714
H  17.693000  13.826000  0.000000
H  19.858000  12.564000  0.000000
H  21.106000  10.363000  0.000000
H  22.366000  5.656000  0.000000
H  22.367000  8.165000  0.000000
H  19.852000  1.261000  0.000000
H  17.690000  -0.000000  0.000000
H  21.104000  3.459000  0.000000
H  2.530000  -0.005000  0.000000
H  15.160000  -0.002000  0.000000
H  0.000000  -0.000000  0.000000
H  -2.163000  1.262000  0.000000
H  -3.415000  3.463000  0.000000
H  -4.677000  8.168000  0.000000
H  -4.678000  5.662000  0.000000
H  -2.159000  12.565000  0.000000
H  10.109000  13.837000  0.000000
H  7.585000  13.838000  0.000000
H  5.062000  13.833000  0.000000
H  2.535000  13.828000  0.000000
H  15.163000  13.830000  0.000000
H  0.007000  13.825000  0.000000
H  -3.412000  10.366000  0.000000
H  12.635000  13.835000  0.000000
H  10.108000  -0.010000  0.000000
H  7.583000  -0.012000  0.000000
H  5.058000  -0.011000  0.000000
H  12.631000  -0.009000  0.000000
C  16.391568  10.553000  0.483069
C  16.391568  12.029000  0.401547
C  17.670751  12.724286  0.261595
C  17.670751  8.371221  0.629010
C  17.670751  9.823667  0.724653
C  18.905140  10.553000  0.579991
C  18.905140  12.029000  0.288290
C  17.670751  4.000000  0.730294
C  17.670751  5.453610  0.647896
C  18.905140  6.197900  0.576370
C  18.905140  7.631998  0.581566
C  20.154752  8.371221  0.534435
C  20.154752  9.823667  0.483241
C  18.905140  3.272000  0.583573
C  20.154752  4.000000  0.493201
C  20.154752  5.453610  0.548434
C  21.411000  6.197900  0.474334
C  21.411000  7.631998  0.471992
C  17.670751  1.101000  0.266982
C  18.905140  1.797813  0.295263
C  5.067250  5.453610  0.221975
C  5.067250  4.000000  0.214587
C  3.815571  3.272000  0.124899
C  3.815571  1.797813  0.095364
C  11.361143  3.272000  0.112111
C  2.546438  1.101000  0.178388
C  3.815571  7.631998  0.249569
C  3.815571  6.197900  0.225102
C  11.361143  7.631998  0.165470
C  2.546438  5.453610  0.229544
C  11.361143  6.197900  0.145119
C  2.546438  4.000000  0.172164
C  10.098375  5.453610  0.079328
C  16.391568  3.272000  0.458940
C  1.302141  3.272000  0.471097
C  10.098375  4.000000  0.094061
C  16.391568  1.797813  0.398805
C  1.302141  1.797813  0.389726
C  8.830644  3.272000  -0.009970
C  15.145562  1.101000  0.180965
C  0.021251  1.101000  0.265877
C  11.361143  12.029000  0.087667
C  2.546438  9.823667  0.216269
C  11.361143  10.553000  0.170925
C  2.546438  8.371221  0.249010
C  10.098375  9.823667  0.157008
C  16.391568  7.631998  0.366600
C  1.302141  7.631998  0.362999
C  10.098375  8.371221  0.118777
C  16.391568  6.197900  0.356271
C  1.302141  6.197900  0.357600
C  15.145562  5.453610  0.205111
C  0.021251  5.453610  0.626295
C  8.830644  7.631998  0.088565
C  8.830644  6.197900  0.063597
C  15.145562  4.000000  0.156480
C  0.021251  4.000000  0.726432
C  7.582124  5.453610  0.079112
C  13.876357  3.272000  0.100167
C  -1.214289  3.272000  0.556424
C  7.582124  4.000000  0.101198
C  13.876357  1.797813  0.072422
C  -1.214289  1.797813  0.272186
C  10.098375  12.724286  0.129735
C  1.302141  10.553000  0.510189
C  8.830644  12.029000  0.214987
C  15.145562  9.823667  0.172637
C  0.021251  9.823667  0.744957
C  8.830644  10.553000  0.083151
C  15.145562  8.371221  0.216619
C  0.021251  8.371221  0.627249
C  7.582124  9.823667  0.184276
C  13.876357  7.631998  0.193288
C  -1.214289  7.631998  0.504978
C  7.582124  8.371221  0.122622
C  13.876357  6.197900  0.175903
C  -1.214289  6.197900  0.505943
C  6.330357  7.631998  0.189267
C  12.623562  5.453610  0.178622
C  -2.463372  5.453610  0.468999
C  6.330357  6.197900  0.155002
C  12.623562  4.000000  0.195476
C  -2.463372  4.000000  0.428043
C  7.582124  12.724286  0.158379
C  13.876357  10.553000  0.133795
C  -1.214289  10.553000  0.562738
C  6.330357  12.029000  0.132913
C  12.623562  9.823667  0.232601
C  -2.463372  9.823667  0.419954
C  6.330357  10.553000  0.221927
C  12.623562  8.371221  0.221475
C  -2.463372  8.371221  0.455928
C  5.067250  9.823667  0.289869
C  -3.721000  7.631998  0.348842
C  5.067250  8.371221  0.264954
C  -3.721000  6.197900  0.350304
C  5.067250  12.724286  0.016230
C  3.815571  12.029000  0.179479
C  3.815571  10.553000  0.183563
C  2.546438  12.724286  0.263913
C  1.302141  12.029000  0.457510
C  6.330357  3.272000  0.116888
C  15.145562  12.724286  0.204606
C  0.021251  12.724286  0.286128
C  13.876357  12.029000  0.125270
C  -1.214289  12.029000  0.272956
C  12.623562  12.724286  -0.047563
C  6.330357  1.797813  0.006844
C  8.830644  1.797813  0.096059
C  11.361143  1.797813  -0.015120
C  10.098375  1.101000  0.000391
C  7.582124  1.101000  0.015066
C  5.067250  1.101000  -0.108966
C  12.623562  1.101000  -0.150670
