142
frame	683
H  17.693000  13.826000  0.000000
H  19.858000  12.564000  0.000000
H  21.106000  10.363000  0.000000
H  22.366000  5.656000  0.000000
H  22.367000  8.165000  0.000000
H  19.852000  1.261000  0.000000
H  17.690000  -0.000000  0.000000
H  21.104000  3.459000  0.000000
H  2.530000  -0.005000  0.000000
H  15.160000  -0.002000  0.000000
H  0.000000  -0.000000  0.000000
H  -2.163000  1.262000  0.000000
H  -3.415000  3.463000  0.000000
H  -4.677000  8.168000  0.000000
H  -4.678000  5.662000  0.000000
H  -2.159000  12.565000  0.000000
H  10.109000  13.837000  0.000000
H  7.585000  13.838000  0.000000
H  5.062000  13.833000  0.000000
H  2.535000  13.828000  0.000000
H  15.163000  13.830000  0.000000
H  0.007000  13.825000  0.000000
H  -3.412000  10.366000  0.000000
H  12.635000  13.835000  0.000000
H  10.108000  -0.010000  0.000000
H  7.583000  -0.012000  0.000000
H  5.058000  -0.011000  0.000000
H  12.631000  -0.009000  0.000000
C  16.391568  10.553000  0.462628
C  16.391568  12.029000  0.294799
C  17.670751  12.724286  0.261470
C  17.670751  8.371221  0.515203
C  17.670751  9.823667  0.466644
C  18.905140  10.553000  0.413423
C  18.905140  12.029000  0.283910
C  17.670751  4.000000  0.472637
C  17.670751  5.453610  0.512779
C  18.905140  6.197900  0.664487
C  18.905140  7.631998  0.663673
C  20.154752  8.371221  0.538983
C  20.154752  9.823667  0.335474
C  18.905140  3.272000  0.429038
C  20.154752  4.000000  0.353631
C  20.154752  5.453610  0.550929
C  21.411000  6.197900  0.439027
C  21.411000  7.631998  0.435114
C  17.670751  1.101000  0.264983
C  18.905140  1.797813  0.309316
C  5.067250  5.453610  0.175175
C  5.067250  4.000000  0.053169
C  3.815571  3.272000  0.090514
C  3.815571  1.797813  -0.035826
C  11.361143  3.272000  0.021510
C  2.546438  1.101000  0.046194
C  3.815571  7.631998  0.178193
C  3.815571  6.197900  0.165200
C  11.361143  7.631998  0.087015
C  2.546438  5.453610  0.283068
C  11.361143  6.197900  0.083899
C  2.546438  4.000000  0.316281
C  10.098375  5.453610  -0.081891
C  16.391568  3.272000  0.467003
C  1.302141  3.272000  0.470027
C  10.098375  4.000000  0.016158
C  16.391568  1.797813  0.277688
C  1.302141  1.797813  0.282543
C  8.830644  3.272000  0.060058
C  15.145562  1.101000  0.027263
C  0.021251  1.101000  0.256817
C  11.361143  12.029000  0.074201
C  2.546438  9.823667  0.366883
C  11.361143  10.553000  0.089931
C  2.546438  8.371221  0.289558
C  10.098375  9.823667  0.088120
C  16.391568  7.631998  0.390887
C  1.302141  7.631998  0.407086
C  10.098375  8.371221  -0.056904
C  16.391568  6.197900  0.385929
C  1.302141  6.197900  0.405228
C  15.145562  5.453610  0.253420
C  0.021251  5.453610  0.477774
C  8.830644  7.631998  -0.263114
C  8.830644  6.197900  -0.282016
C  15.145562  4.000000  0.304098
C  0.021251  4.000000  0.441830
C  7.582124  5.453610  -0.084081
C  13.876357  3.272000  0.069274
C  -1.214289  3.272000  0.397007
C  7.582124  4.000000  0.038311
C  13.876357  1.797813  -0.043278
C  -1.214289  1.797813  0.288306
C  10.098375  12.724286  0.001409
C  1.302141  10.553000  0.495091
C  8.830644  12.029000  0.059885
C  15.145562  9.823667  0.311363
C  0.021251  9.823667  0.449542
C  8.830644  10.553000  0.149768
C  15.145562  8.371221  0.242163
C  0.021251  8.371221  0.481452
C  7.582124  9.823667  0.115723
C  13.876357  7.631998  0.139786
C  -1.214289  7.631998  0.605814
C  7.582124  8.371221  -0.049687
C  13.876357  6.197900  0.146319
C  -1.214289  6.197900  0.610685
C  6.330357  7.631998  0.123715
C  12.623562  5.453610  0.175064
C  -2.463372  5.453610  0.446328
C  6.330357  6.197900  0.096643
C  12.623562  4.000000  0.030728
C  -2.463372  4.000000  0.286683
C  7.582124  12.724286  0.042804
C  13.876357  10.553000  0.113380
C  -1.214289  10.553000  0.395240
C  6.330357  12.029000  0.125832
C  12.623562  9.823667  0.081606
C  -2.463372  9.823667  0.261686
C  6.330357  10.553000  0.136484
C  12.623562  8.371221  0.167128
C  -2.463372  8.371221  0.443253
C  5.067250  9.823667  0.120309
C  -3.721000  7.631998  0.300190
C  5.067250  8.371221  0.194889
C  -3.721000  6.197900  0.315181
C  5.067250  12.724286  0.110573
C  3.815571  12.029000  0.075271
C  3.815571  10.553000  0.166876
C  2.546438  12.724286  0.124029
C  1.302141  12.029000  0.327695
C  6.330357  3.272000  0.042986
C  15.145562  12.724286  0.092567
C  0.021251  12.724286  0.300943
C  13.876357  12.029000  0.022595
C  -1.214289  12.029000  0.295679
C  12.623562  12.724286  0.060015
C  6.330357  1.797813  0.014809
C  8.830644  1.797813  -0.062978
C  11.361143  1.797813  -0.024998
C  10.098375  1.101000  -0.121851
C  7.582124  1.101000  -0.096844
C  5.067250  1.101000  -0.010152
C  12.623562  1.101000  -0.015500
