142
frame	93
H  17.693000  13.826000  0.000000
H  19.858000  12.564000  0.000000
H  21.106000  10.363000  0.000000
H  22.366000  5.656000  0.000000
H  22.367000  8.165000  0.000000
H  19.852000  1.261000  0.000000
H  17.690000  -0.000000  0.000000
H  21.104000  3.459000  0.000000
H  2.530000  -0.005000  0.000000
H  15.160000  -0.002000  0.000000
H  0.000000  -0.000000  0.000000
H  -2.163000  1.262000  0.000000
H  -3.415000  3.463000  0.000000
H  -4.677000  8.168000  0.000000
H  -4.678000  5.662000  0.000000
H  -2.159000  12.565000  0.000000
H  10.109000  13.837000  0.000000
H  7.585000  13.838000  0.000000
H  5.062000  13.833000  0.000000
H  2.535000  13.828000  0.000000
H  15.163000  13.830000  0.000000
H  0.007000  13.825000  0.000000
H  -3.412000  10.366000  0.000000
H  12.635000  13.835000  0.000000
H  10.108000  -0.010000  0.000000
H  7.583000  -0.012000  0.000000
H  5.058000  -0.011000  0.000000
H  12.631000  -0.009000  0.000000
C  16.391568  10.553000  0.028981
C  16.391568  12.029000  -0.072241
C  17.670751  12.724286  -0.011775
C  17.670751  8.371221  0.043388
C  17.670751  9.823667  -0.025839
C  18.905140  10.553000  0.052551
C  18.905140  12.029000  0.079541
C  17.670751  4.000000  -0.020985
C  17.670751  5.453610  0.044022
C  18.905140  6.197900  0.057364
C  18.905140  7.631998  0.052685
C  20.154752  8.371221  0.133428
C  20.154752  9.823667  0.145212
C  18.905140  3.272000  0.054901
C  20.154752  4.000000  0.154018
C  20.154752  5.453610  0.140971
C  21.411000  6.197900  0.216509
C  21.411000  7.631998  0.213353
C  17.670751  1.101000  -0.023117
C  18.905140  1.797813  0.083801
C  5.067250  5.453610  -0.348362
C  5.067250  4.000000  -0.218782
C  3.815571  3.272000  0.118943
C  3.815571  1.797813  0.130636
C  11.361143  3.272000  -0.298626
C  2.546438  1.101000  -0.013252
C  3.815571  7.631998  -0.077231
C  3.815571  6.197900  -0.093195
C  11.361143  7.631998  -0.497818
C  2.546438  5.453610  0.206437
C  11.361143  6.197900  -0.519075
C  2.546438  4.000000  0.239942
C  10.098375  5.453610  -0.556492
C  16.391568  3.272000  0.024557
C  1.302141  3.272000  0.034350
C  10.098375  4.000000  -0.444616
C  16.391568  1.797813  -0.089740
C  1.302141  1.797813  -0.086347
C  8.830644  3.272000  -0.446785
C  15.145562  1.101000  -0.025416
C  0.021251  1.101000  -0.026183
C  11.361143  12.029000  0.064224
C  2.546438  9.823667  0.270623
C  11.361143  10.553000  -0.232976
C  2.546438  8.371221  0.221770
C  10.098375  9.823667  -0.395126
C  16.391568  7.631998  0.181068
C  1.302141  7.631998  0.202851
C  10.098375  8.371221  -0.534724
C  16.391568  6.197900  0.168859
C  1.302141  6.197900  0.198656
C  15.145562  5.453610  0.174495
C  0.021251  5.453610  0.038048
C  8.830644  7.631998  -0.619436
C  8.830644  6.197900  -0.635658
C  15.145562  4.000000  0.203525
C  0.021251  4.000000  -0.033923
C  7.582124  5.453610  -0.549348
C  13.876357  3.272000  0.090483
C  -1.214289  3.272000  0.028336
C  7.582124  4.000000  -0.445417
C  13.876357  1.797813  0.106195
C  -1.214289  1.797813  0.067566
C  10.098375  12.724286  0.063089
C  1.302141  10.553000  0.070467
C  8.830644  12.029000  -0.038917
C  15.145562  9.823667  0.233459
C  0.021251  9.823667  -0.015829
C  8.830644  10.553000  -0.378367
C  15.145562  8.371221  0.190333
C  0.021251  8.371221  0.046577
C  7.582124  9.823667  -0.389081
C  13.876357  7.631998  -0.113938
C  -1.214289  7.631998  0.023799
C  7.582124  8.371221  -0.508613
C  13.876357  6.197900  -0.107189
C  -1.214289  6.197900  0.021509
C  6.330357  7.631998  -0.487825
C  12.623562  5.453610  -0.367358
C  -2.463372  5.453610  0.075478
C  6.330357  6.197900  -0.495885
C  12.623562  4.000000  -0.230089
C  -2.463372  4.000000  0.099770
C  7.582124  12.724286  0.068156
C  13.876357  10.553000  0.141313
C  -1.214289  10.553000  0.032805
C  6.330357  12.029000  0.099082
C  12.623562  9.823667  -0.192677
C  -2.463372  9.823667  0.091832
C  6.330357  10.553000  -0.204524
C  12.623562  8.371221  -0.339339
C  -2.463372  8.371221  0.070968
C  5.067250  9.823667  -0.162294
C  -3.721000  7.631998  0.105490
C  5.067250  8.371221  -0.320930
C  -3.721000  6.197900  0.109646
C  5.067250  12.724286  0.163285
C  3.815571  12.029000  0.211309
C  3.815571  10.553000  0.167541
C  2.546438  12.724286  0.066705
C  1.302141  12.029000  -0.036200
C  6.330357  3.272000  -0.284445
C  15.145562  12.724286  0.003730
C  0.021251  12.724286  -0.000240
C  13.876357  12.029000  0.159819
C  -1.214289  12.029000  0.071689
C  12.623562  12.724286  0.129868
C  6.330357  1.797813  -0.005248
C  8.830644  1.797813  -0.153905
C  11.361143  1.797813  -0.027915
C  10.098375  1.101000  -0.083194
C  7.582124  1.101000  -0.072285
C  5.067250  1.101000  0.060639
C  12.623562  1.101000  0.042898
