142
frame	280
H  17.693000  13.826000  0.000000
H  19.858000  12.564000  0.000000
H  21.106000  10.363000  0.000000
H  22.366000  5.656000  0.000000
H  22.367000  8.165000  0.000000
H  19.852000  1.261000  0.000000
H  17.690000  -0.000000  0.000000
H  21.104000  3.459000  0.000000
H  2.530000  -0.005000  0.000000
H  15.160000  -0.002000  0.000000
H  0.000000  -0.000000  0.000000
H  -2.163000  1.262000  0.000000
H  -3.415000  3.463000  0.000000
H  -4.677000  8.168000  0.000000
H  -4.678000  5.662000  0.000000
H  -2.159000  12.565000  0.000000
H  10.109000  13.837000  0.000000
H  7.585000  13.838000  0.000000
H  5.062000  13.833000  0.000000
H  2.535000  13.828000  0.000000
H  15.163000  13.830000  0.000000
H  0.007000  13.825000  0.000000
H  -3.412000  10.366000  0.000000
H  12.635000  13.835000  0.000000
H  10.108000  -0.010000  0.000000
H  7.583000  -0.012000  0.000000
H  5.058000  -0.011000  0.000000
H  12.631000  -0.009000  0.000000
C  16.391568  10.553000  -0.230338
C  16.391568  12.029000  -0.205399
C  17.670751  12.724286  -0.263776
C  17.670751  8.371221  -0.269911
C  17.670751  9.823667  -0.061027
C  18.905140  10.553000  0.058428
C  18.905140  12.029000  -0.124906
C  17.670751  4.000000  -0.055095
C  17.670751  5.453610  -0.256791
C  18.905140  6.197900  -0.227371
C  18.905140  7.631998  -0.230453
C  20.154752  8.371221  0.039699
C  20.154752  9.823667  0.087198
C  18.905140  3.272000  0.038798
C  20.154752  4.000000  0.107853
C  20.154752  5.453610  0.049821
C  21.411000  6.197900  0.257790
C  21.411000  7.631998  0.239551
C  17.670751  1.101000  -0.265267
C  18.905140  1.797813  -0.108264
C  5.067250  5.453610  -0.623618
C  5.067250  4.000000  -0.515968
C  3.815571  3.272000  -0.438577
C  3.815571  1.797813  -0.209473
C  11.361143  3.272000  -0.347363
C  2.546438  1.101000  -0.109970
C  3.815571  7.631998  -0.434526
C  3.815571  6.197900  -0.452518
C  11.361143  7.631998  -0.840793
C  2.546438  5.453610  -0.436569
C  11.361143  6.197900  -0.856468
C  2.546438  4.000000  -0.475715
C  10.098375  5.453610  -0.780194
C  16.391568  3.272000  -0.242539
C  1.302141  3.272000  -0.270479
C  10.098375  4.000000  -0.628127
C  16.391568  1.797813  -0.235579
C  1.302141  1.797813  -0.246080
C  8.830644  3.272000  -0.467000
C  15.145562  1.101000  -0.109213
C  0.021251  1.101000  -0.261823
C  11.361143  12.029000  -0.044389
C  2.546438  9.823667  -0.427085
C  11.361143  10.553000  -0.275163
C  2.546438  8.371221  -0.404700
C  10.098375  9.823667  -0.555782
C  16.391568  7.631998  -0.388721
C  1.302141  7.631998  -0.428429
C  10.098375  8.371221  -0.756476
C  16.391568  6.197900  -0.383835
C  1.302141  6.197900  -0.432467
C  15.145562  5.453610  -0.404785
C  0.021251  5.453610  -0.331708
C  8.830644  7.631998  -0.738075
C  8.830644  6.197900  -0.759611
C  15.145562  4.000000  -0.451683
C  0.021251  4.000000  -0.094516
C  7.582124  5.453610  -0.794487
C  13.876357  3.272000  -0.411647
C  -1.214289  3.272000  0.021531
C  7.582124  4.000000  -0.627519
C  13.876357  1.797813  -0.200921
C  -1.214289  1.797813  -0.136625
C  10.098375  12.724286  -0.003125
C  1.302141  10.553000  -0.226197
C  8.830644  12.029000  -0.131177
C  15.145562  9.823667  -0.423163
C  0.021251  9.823667  -0.081718
C  8.830644  10.553000  -0.376219
C  15.145562  8.371221  -0.395872
C  0.021251  8.371221  -0.324730
C  7.582124  9.823667  -0.546264
C  13.876357  7.631998  -0.412720
C  -1.214289  7.631998  -0.305156
C  7.582124  8.371221  -0.761602
C  13.876357  6.197900  -0.436003
C  -1.214289  6.197900  -0.303086
C  6.330357  7.631998  -0.839678
C  12.623562  5.453610  -0.621906
C  -2.463372  5.453610  -0.060981
C  6.330357  6.197900  -0.868213
C  12.623562  4.000000  -0.505735
C  -2.463372  4.000000  0.021761
C  7.582124  12.724286  0.016687
C  13.876357  10.553000  -0.381860
C  -1.214289  10.553000  0.019042
C  6.330357  12.029000  -0.019967
C  12.623562  9.823667  -0.451342
C  -2.463372  9.823667  0.027033
C  6.330357  10.553000  -0.265640
C  12.623562  8.371221  -0.593101
C  -2.463372  8.371221  -0.061012
C  5.067250  9.823667  -0.451542
C  -3.721000  7.631998  0.132326
C  5.067250  8.371221  -0.595719
C  -3.721000  6.197900  0.129484
C  5.067250  12.724286  0.090443
C  3.815571  12.029000  -0.115728
C  3.815571  10.553000  -0.370662
C  2.546438  12.724286  -0.028091
C  1.302141  12.029000  -0.200726
C  6.330357  3.272000  -0.348717
C  15.145562  12.724286  -0.054063
C  0.021251  12.724286  -0.242389
C  13.876357  12.029000  -0.130886
C  -1.214289  12.029000  -0.128095
C  12.623562  12.724286  0.054603
C  6.330357  1.797813  -0.151982
C  8.830644  1.797813  -0.263330
C  11.361143  1.797813  -0.155310
C  10.098375  1.101000  -0.131904
C  7.582124  1.101000  -0.127963
C  5.067250  1.101000  -0.042665
C  12.623562  1.101000  -0.040479
