142
frame	109
H  17.693000  13.826000  0.000000
H  19.858000  12.564000  0.000000
H  21.106000  10.363000  0.000000
H  22.366000  5.656000  0.000000
H  22.367000  8.165000  0.000000
H  19.852000  1.261000  0.000000
H  17.690000  -0.000000  0.000000
H  21.104000  3.459000  0.000000
H  2.530000  -0.005000  0.000000
H  15.160000  -0.002000  0.000000
H  0.000000  -0.000000  0.000000
H  -2.163000  1.262000  0.000000
H  -3.415000  3.463000  0.000000
H  -4.677000  8.168000  0.000000
H  -4.678000  5.662000  0.000000
H  -2.159000  12.565000  0.000000
H  10.109000  13.837000  0.000000
H  7.585000  13.838000  0.000000
H  5.062000  13.833000  0.000000
H  2.535000  13.828000  0.000000
H  15.163000  13.830000  0.000000
H  0.007000  13.825000  0.000000
H  -3.412000  10.366000  0.000000
H  12.635000  13.835000  0.000000
H  10.108000  -0.010000  0.000000
H  7.583000  -0.012000  0.000000
H  5.058000  -0.011000  0.000000
H  12.631000  -0.009000  0.000000
C  16.391568  10.553000  0.170961
C  16.391568  12.029000  0.018077
C  17.670751  12.724286  -0.087654
C  17.670751  8.371221  0.138443
C  17.670751  9.823667  0.049625
C  18.905140  10.553000  -0.011515
C  18.905140  12.029000  -0.010408
C  17.670751  4.000000  0.053791
C  17.670751  5.453610  0.132593
C  18.905140  6.197900  0.067415
C  18.905140  7.631998  0.066619
C  20.154752  8.371221  0.100643
C  20.154752  9.823667  0.088807
C  18.905140  3.272000  -0.001310
C  20.154752  4.000000  0.098103
C  20.154752  5.453610  0.109645
C  21.411000  6.197900  0.203242
C  21.411000  7.631998  0.198066
C  17.670751  1.101000  -0.089718
C  18.905140  1.797813  -0.010262
C  5.067250  5.453610  -0.402485
C  5.067250  4.000000  -0.315262
C  3.815571  3.272000  0.005211
C  3.815571  1.797813  0.116681
C  11.361143  3.272000  -0.361228
C  2.546438  1.101000  0.110273
C  3.815571  7.631998  -0.263242
C  3.815571  6.197900  -0.272191
C  11.361143  7.631998  -0.421559
C  2.546438  5.453610  0.097604
C  11.361143  6.197900  -0.422563
C  2.546438  4.000000  0.180605
C  10.098375  5.453610  -0.635389
C  16.391568  3.272000  0.152765
C  1.302141  3.272000  0.172196
C  10.098375  4.000000  -0.434413
C  16.391568  1.797813  0.015210
C  1.302141  1.797813  0.021714
C  8.830644  3.272000  -0.362222
C  15.145562  1.101000  0.094570
C  0.021251  1.101000  -0.097310
C  11.361143  12.029000  -0.145783
C  2.546438  9.823667  0.210233
C  11.361143  10.553000  -0.311259
C  2.546438  8.371221  0.117042
C  10.098375  9.823667  -0.386350
C  16.391568  7.631998  0.237808
C  1.302141  7.631998  0.259968
C  10.098375  8.371221  -0.585957
C  16.391568  6.197900  0.234605
C  1.302141  6.197900  0.252855
C  15.145562  5.453610  0.079526
C  0.021251  5.453610  0.138669
C  8.830644  7.631998  -0.710860
C  8.830644  6.197900  -0.722963
C  15.145562  4.000000  0.156559
C  0.021251  4.000000  0.051356
C  7.582124  5.453610  -0.609865
C  13.876357  3.272000  -0.012149
C  -1.214289  3.272000  -0.034377
C  7.582124  4.000000  -0.426212
C  13.876357  1.797813  0.098138
C  -1.214289  1.797813  -0.031357
C  10.098375  12.724286  -0.151818
C  1.302141  10.553000  0.202890
C  8.830644  12.029000  -0.283520
C  15.145562  9.823667  0.194435
C  0.021251  9.823667  0.068958
C  8.830644  10.553000  -0.293584
C  15.145562  8.371221  0.085043
C  0.021251  8.371221  0.144961
C  7.582124  9.823667  -0.380314
C  13.876357  7.631998  -0.278300
C  -1.214289  7.631998  0.035907
C  7.582124  8.371221  -0.584541
C  13.876357  6.197900  -0.296459
C  -1.214289  6.197900  0.035709
C  6.330357  7.631998  -0.389691
C  12.623562  5.453610  -0.416247
C  -2.463372  5.453610  0.038665
C  6.330357  6.197900  -0.413895
C  12.623562  4.000000  -0.330373
C  -2.463372  4.000000  0.038392
C  7.582124  12.724286  -0.145790
C  13.876357  10.553000  0.024871
C  -1.214289  10.553000  -0.028570
C  6.330357  12.029000  -0.119871
C  12.623562  9.823667  -0.300912
C  -2.463372  9.823667  0.032151
C  6.330357  10.553000  -0.289445
C  12.623562  8.371221  -0.394171
C  -2.463372  8.371221  0.035909
C  5.067250  9.823667  -0.250873
C  -3.721000  7.631998  0.090009
C  5.067250  8.371221  -0.379391
C  -3.721000  6.197900  0.093221
C  5.067250  12.724286  0.158911
C  3.815571  12.029000  0.184482
C  3.815571  10.553000  0.064236
C  2.546438  12.724286  0.183080
C  1.302141  12.029000  0.072488
C  6.330357  3.272000  -0.361306
C  15.145562  12.724286  0.129556
C  0.021251  12.724286  -0.066269
C  13.876357  12.029000  0.164248
C  -1.214289  12.029000  -0.025273
C  12.623562  12.724286  0.123508
C  6.330357  1.797813  -0.239803
C  8.830644  1.797813  -0.407454
C  11.361143  1.797813  -0.253719
C  10.098375  1.101000  -0.303676
C  7.582124  1.101000  -0.289631
C  5.067250  1.101000  0.053374
C  12.623562  1.101000  0.025806
