142
frame	397
H  17.693000  13.826000  0.000000
H  19.858000  12.564000  0.000000
H  21.106000  10.363000  0.000000
H  22.366000  5.656000  0.000000
H  22.367000  8.165000  0.000000
H  19.852000  1.261000  0.000000
H  17.690000  -0.000000  0.000000
H  21.104000  3.459000  0.000000
H  2.530000  -0.005000  0.000000
H  15.160000  -0.002000  0.000000
H  0.000000  -0.000000  0.000000
H  -2.163000  1.262000  0.000000
H  -3.415000  3.463000  0.000000
H  -4.677000  8.168000  0.000000
H  -4.678000  5.662000  0.000000
H  -2.159000  12.565000  0.000000
H  10.109000  13.837000  0.000000
H  7.585000  13.838000  0.000000
H  5.062000  13.833000  0.000000
H  2.535000  13.828000  0.000000
H  15.163000  13.830000  0.000000
H  0.007000  13.825000  0.000000
H  -3.412000  10.366000  0.000000
H  12.635000  13.835000  0.000000
H  10.108000  -0.010000  0.000000
H  7.583000  -0.012000  0.000000
H  5.058000  -0.011000  0.000000
H  12.631000  -0.009000  0.000000
C  16.391568  10.553000  -0.538758
C  16.391568  12.029000  -0.347093
C  17.670751  12.724286  -0.145760
C  17.670751  8.371221  -0.492936
C  17.670751  9.823667  -0.589142
C  18.905140  10.553000  -0.326106
C  18.905140  12.029000  -0.089717
C  17.670751  4.000000  -0.601859
C  17.670751  5.453610  -0.494205
C  18.905140  6.197900  -0.267601
C  18.905140  7.631998  -0.280354
C  20.154752  8.371221  -0.187876
C  20.154752  9.823667  -0.158489
C  18.905140  3.272000  -0.309202
C  20.154752  4.000000  -0.143059
C  20.154752  5.453610  -0.185282
C  21.411000  6.197900  -0.021145
C  21.411000  7.631998  -0.025437
C  17.670751  1.101000  -0.158364
C  18.905140  1.797813  -0.086209
C  5.067250  5.453610  -0.452521
C  5.067250  4.000000  -0.403487
C  3.815571  3.272000  -0.424910
C  3.815571  1.797813  -0.305545
C  11.361143  3.272000  -0.387854
C  2.546438  1.101000  -0.219819
C  3.815571  7.631998  -0.650292
C  3.815571  6.197900  -0.662938
C  11.361143  7.631998  -0.286468
C  2.546438  5.453610  -0.556986
C  11.361143  6.197900  -0.301662
C  2.546438  4.000000  -0.543711
C  10.098375  5.453610  -0.263020
C  16.391568  3.272000  -0.556034
C  1.302141  3.272000  -0.609738
C  10.098375  4.000000  -0.344909
C  16.391568  1.797813  -0.378800
C  1.302141  1.797813  -0.401823
C  8.830644  3.272000  -0.310579
C  15.145562  1.101000  -0.225160
C  0.021251  1.101000  -0.182353
C  11.361143  12.029000  -0.250685
C  2.546438  9.823667  -0.501956
C  11.361143  10.553000  -0.309815
C  2.546438  8.371221  -0.545379
C  10.098375  9.823667  -0.272496
C  16.391568  7.631998  -0.497553
C  1.302141  7.631998  -0.552704
C  10.098375  8.371221  -0.228309
C  16.391568  6.197900  -0.496793
C  1.302141  6.197900  -0.553943
C  15.145562  5.453610  -0.504050
C  0.021251  5.453610  -0.564611
C  8.830644  7.631998  -0.270613
C  8.830644  6.197900  -0.288578
C  15.145562  4.000000  -0.502018
C  0.021251  4.000000  -0.668680
C  7.582124  5.453610  -0.265020
C  13.876357  3.272000  -0.383240
C  -1.214289  3.272000  -0.391190
C  7.582124  4.000000  -0.329682
C  13.876357  1.797813  -0.280858
C  -1.214289  1.797813  -0.116395
C  10.098375  12.724286  -0.134864
C  1.302141  10.553000  -0.580284
C  8.830644  12.029000  -0.091177
C  15.145562  9.823667  -0.472709
C  0.021251  9.823667  -0.664286
C  8.830644  10.553000  -0.222411
C  15.145562  8.371221  -0.505389
C  0.021251  8.371221  -0.547092
C  7.582124  9.823667  -0.272403
C  13.876357  7.631998  -0.617933
C  -1.214289  7.631998  -0.355563
C  7.582124  8.371221  -0.244339
C  13.876357  6.197900  -0.629099
C  -1.214289  6.197900  -0.367983
C  6.330357  7.631998  -0.304853
C  12.623562  5.453610  -0.431438
C  -2.463372  5.453610  -0.268298
C  6.330357  6.197900  -0.317129
C  12.623562  4.000000  -0.387128
C  -2.463372  4.000000  -0.220734
C  7.582124  12.724286  -0.116426
C  13.876357  10.553000  -0.341522
C  -1.214289  10.553000  -0.383052
C  6.330357  12.029000  -0.230752
C  12.623562  9.823667  -0.335092
C  -2.463372  9.823667  -0.240853
C  6.330357  10.553000  -0.293709
C  12.623562  8.371221  -0.409253
C  -2.463372  8.371221  -0.269621
C  5.067250  9.823667  -0.330170
C  -3.721000  7.631998  -0.151627
C  5.067250  8.371221  -0.428310
C  -3.721000  6.197900  -0.143400
C  5.067250  12.724286  -0.156194
C  3.815571  12.029000  -0.209632
C  3.815571  10.553000  -0.362132
C  2.546438  12.724286  -0.162161
C  1.302141  12.029000  -0.364228
C  6.330357  3.272000  -0.364678
C  15.145562  12.724286  -0.177156
C  0.021251  12.724286  -0.145438
C  13.876357  12.029000  -0.220934
C  -1.214289  12.029000  -0.106420
C  12.623562  12.724286  -0.175487
C  6.330357  1.797813  -0.352893
C  8.830644  1.797813  -0.227392
C  11.361143  1.797813  -0.366519
C  10.098375  1.101000  -0.279534
C  7.582124  1.101000  -0.274373
C  5.067250  1.101000  -0.274114
C  12.623562  1.101000  -0.269387
