142
frame	949
H  17.693000  13.826000  0.000000
H  19.858000  12.564000  0.000000
H  21.106000  10.363000  0.000000
H  22.366000  5.656000  0.000000
H  22.367000  8.165000  0.000000
H  19.852000  1.261000  0.000000
H  17.690000  -0.000000  0.000000
H  21.104000  3.459000  0.000000
H  2.530000  -0.005000  0.000000
H  15.160000  -0.002000  0.000000
H  0.000000  -0.000000  0.000000
H  -2.163000  1.262000  0.000000
H  -3.415000  3.463000  0.000000
H  -4.677000  8.168000  0.000000
H  -4.678000  5.662000  0.000000
H  -2.159000  12.565000  0.000000
H  10.109000  13.837000  0.000000
H  7.585000  13.838000  0.000000
H  5.062000  13.833000  0.000000
H  2.535000  13.828000  0.000000
H  15.163000  13.830000  0.000000
H  0.007000  13.825000  0.000000
H  -3.412000  10.366000  0.000000
H  12.635000  13.835000  0.000000
H  10.108000  -0.010000  0.000000
H  7.583000  -0.012000  0.000000
H  5.058000  -0.011000  0.000000
H  12.631000  -0.009000  0.000000
C  16.391568  10.553000  0.140865
C  16.391568  12.029000  0.092612
C  17.670751  12.724286  0.099965
C  17.670751  8.371221  0.048121
C  17.670751  9.823667  0.187770
C  18.905140  10.553000  0.285315
C  18.905140  12.029000  0.189391
C  17.670751  4.000000  0.176017
C  17.670751  5.453610  0.050748
C  18.905140  6.197900  0.066457
C  18.905140  7.631998  0.057455
C  20.154752  8.371221  0.218527
C  20.154752  9.823667  0.323992
C  18.905140  3.272000  0.287778
C  20.154752  4.000000  0.334482
C  20.154752  5.453610  0.220040
C  21.411000  6.197900  0.295507
C  21.411000  7.631998  0.289603
C  17.670751  1.101000  0.087823
C  18.905140  1.797813  0.199868
C  5.067250  5.453610  0.586213
C  5.067250  4.000000  0.447221
C  3.815571  3.272000  0.167985
C  3.815571  1.797813  0.053358
C  11.361143  3.272000  0.589170
C  2.546438  1.101000  -0.065702
C  3.815571  7.631998  0.413596
C  3.815571  6.197900  0.406232
C  11.361143  7.631998  0.930440
C  2.546438  5.453610  0.198529
C  11.361143  6.197900  0.913772
C  2.546438  4.000000  0.169609
C  10.098375  5.453610  0.883013
C  16.391568  3.272000  0.123446
C  1.302141  3.272000  0.130489
C  10.098375  4.000000  0.817291
C  16.391568  1.797813  0.056077
C  1.302141  1.797813  0.060576
C  8.830644  3.272000  0.774842
C  15.145562  1.101000  -0.083793
C  0.021251  1.101000  0.072088
C  11.361143  12.029000  0.505079
C  2.546438  9.823667  0.204869
C  11.361143  10.553000  0.655772
C  2.546438  8.371221  0.204653
C  10.098375  9.823667  0.870424
C  16.391568  7.631998  0.101373
C  1.302141  7.631998  0.094204
C  10.098375  8.371221  0.926710
C  16.391568  6.197900  0.104375
C  1.302141  6.197900  0.096781
C  15.145562  5.453610  0.212960
C  0.021251  5.453610  0.046827
C  8.830644  7.631998  0.775633
C  8.830644  6.197900  0.754337
C  15.145562  4.000000  0.182353
C  0.021251  4.000000  0.196272
C  7.582124  5.453610  0.893137
C  13.876357  3.272000  0.161546
C  -1.214289  3.272000  0.259571
C  7.582124  4.000000  0.816052
C  13.876357  1.797813  0.060569
C  -1.214289  1.797813  0.180669
C  10.098375  12.724286  0.364223
C  1.302141  10.553000  0.149708
C  8.830644  12.029000  0.521554
C  15.145562  9.823667  0.202920
C  0.021251  9.823667  0.180262
C  8.830644  10.553000  0.844818
C  15.145562  8.371221  0.221828
C  0.021251  8.371221  0.028537
C  7.582124  9.823667  0.878215
C  13.876357  7.631998  0.398767
C  -1.214289  7.631998  0.001654
C  7.582124  8.371221  0.924202
C  13.876357  6.197900  0.399854
C  -1.214289  6.197900  0.000658
C  6.330357  7.631998  0.930848
C  12.623562  5.453610  0.591238
C  -2.463372  5.453610  0.141787
C  6.330357  6.197900  0.920598
C  12.623562  4.000000  0.439104
C  -2.463372  4.000000  0.270189
C  7.582124  12.724286  0.380837
C  13.876357  10.553000  0.198491
C  -1.214289  10.553000  0.256298
C  6.330357  12.029000  0.521833
C  12.623562  9.823667  0.473738
C  -2.463372  9.823667  0.262536
C  6.330357  10.553000  0.678124
C  12.623562  8.371221  0.608249
C  -2.463372  8.371221  0.124374
C  5.067250  9.823667  0.485945
C  -3.721000  7.631998  0.163148
C  5.067250  8.371221  0.618831
C  -3.721000  6.197900  0.168619
C  5.067250  12.724286  0.244747
C  3.815571  12.029000  0.133613
C  3.815571  10.553000  0.221060
C  2.546438  12.724286  0.001116
C  1.302141  12.029000  0.107845
C  6.330357  3.272000  0.605567
C  15.145562  12.724286  -0.025149
C  0.021251  12.724286  0.113144
C  13.876357  12.029000  0.128151
C  -1.214289  12.029000  0.194152
C  12.623562  12.724286  0.219687
C  6.330357  1.797813  0.410537
C  8.830644  1.797813  0.400044
C  11.361143  1.797813  0.389489
C  10.098375  1.101000  0.215898
C  7.582124  1.101000  0.230600
C  5.067250  1.101000  0.131787
C  12.623562  1.101000  0.131383
