142
frame	527
H  17.693000  13.826000  0.000000
H  19.858000  12.564000  0.000000
H  21.106000  10.363000  0.000000
H  22.366000  5.656000  0.000000
H  22.367000  8.165000  0.000000
H  19.852000  1.261000  0.000000
H  17.690000  -0.000000  0.000000
H  21.104000  3.459000  0.000000
H  2.530000  -0.005000  0.000000
H  15.160000  -0.002000  0.000000
H  0.000000  -0.000000  0.000000
H  -2.163000  1.262000  0.000000
H  -3.415000  3.463000  0.000000
H  -4.677000  8.168000  0.000000
H  -4.678000  5.662000  0.000000
H  -2.159000  12.565000  0.000000
H  10.109000  13.837000  0.000000
H  7.585000  13.838000  0.000000
H  5.062000  13.833000  0.000000
H  2.535000  13.828000  0.000000
H  15.163000  13.830000  0.000000
H  0.007000  13.825000  0.000000
H  -3.412000  10.366000  0.000000
H  12.635000  13.835000  0.000000
H  10.108000  -0.010000  0.000000
H  7.583000  -0.012000  0.000000
H  5.058000  -0.011000  0.000000
H  12.631000  -0.009000  0.000000
C  16.391568  10.553000  0.110267
C  16.391568  12.029000  0.099115
C  17.670751  12.724286  0.057619
C  17.670751  8.371221  -0.149548
C  17.670751  9.823667  -0.032390
C  18.905140  10.553000  -0.024794
C  18.905140  12.029000  0.072951
C  17.670751  4.000000  -0.038648
C  17.670751  5.453610  -0.161929
C  18.905140  6.197900  -0.083192
C  18.905140  7.631998  -0.092950
C  20.154752  8.371221  -0.015731
C  20.154752  9.823667  -0.018485
C  18.905140  3.272000  -0.024193
C  20.154752  4.000000  0.013553
C  20.154752  5.453610  -0.007176
C  21.411000  6.197900  0.114551
C  21.411000  7.631998  0.104425
C  17.670751  1.101000  0.036962
C  18.905140  1.797813  0.060380
C  5.067250  5.453610  -0.358975
C  5.067250  4.000000  -0.420378
C  3.815571  3.272000  -0.168561
C  3.815571  1.797813  -0.064662
C  11.361143  3.272000  -0.212904
C  2.546438  1.101000  -0.048442
C  3.815571  7.631998  -0.448268
C  3.815571  6.197900  -0.450494
C  11.361143  7.631998  -0.114010
C  2.546438  5.453610  -0.263074
C  11.361143  6.197900  -0.118418
C  2.546438  4.000000  -0.045675
C  10.098375  5.453610  -0.091215
C  16.391568  3.272000  0.105746
C  1.302141  3.272000  0.082931
C  10.098375  4.000000  -0.160023
C  16.391568  1.797813  0.065704
C  1.302141  1.797813  0.071115
C  8.830644  3.272000  -0.162325
C  15.145562  1.101000  -0.028012
C  0.021251  1.101000  0.020772
C  11.361143  12.029000  -0.027920
C  2.546438  9.823667  -0.016006
C  11.361143  10.553000  -0.155459
C  2.546438  8.371221  -0.253808
C  10.098375  9.823667  -0.113687
C  16.391568  7.631998  -0.292122
C  1.302141  7.631998  -0.307996
C  10.098375  8.371221  -0.095573
C  16.391568  6.197900  -0.290106
C  1.302141  6.197900  -0.310332
C  15.145562  5.453610  -0.247425
C  0.021251  5.453610  -0.186640
C  8.830644  7.631998  -0.241620
C  8.830644  6.197900  -0.243960
C  15.145562  4.000000  -0.040187
C  0.021251  4.000000  -0.064661
C  7.582124  5.453610  -0.108764
C  13.876357  3.272000  -0.171067
C  -1.214289  3.272000  -0.051328
C  7.582124  4.000000  -0.174550
C  13.876357  1.797813  -0.064112
C  -1.214289  1.797813  0.039263
C  10.098375  12.724286  -0.097337
C  1.302141  10.553000  0.104996
C  8.830644  12.029000  -0.263338
C  15.145562  9.823667  -0.023431
C  0.021251  9.823667  -0.058579
C  8.830644  10.553000  -0.094660
C  15.145562  8.371221  -0.244982
C  0.021251  8.371221  -0.177003
C  7.582124  9.823667  -0.125296
C  13.876357  7.631998  -0.414944
C  -1.214289  7.631998  -0.135003
C  7.582124  8.371221  -0.100177
C  13.876357  6.197900  -0.421148
C  -1.214289  6.197900  -0.137447
C  6.330357  7.631998  -0.122762
C  12.623562  5.453610  -0.325863
C  -2.463372  5.453610  -0.090817
C  6.330357  6.197900  -0.128950
C  12.623562  4.000000  -0.397268
C  -2.463372  4.000000  -0.068706
C  7.582124  12.724286  -0.072681
C  13.876357  10.553000  -0.124483
C  -1.214289  10.553000  -0.054883
C  6.330357  12.029000  -0.016390
C  12.623562  9.823667  -0.343213
C  -2.463372  9.823667  -0.083596
C  6.330357  10.553000  -0.176243
C  12.623562  8.371221  -0.326060
C  -2.463372  8.371221  -0.100131
C  5.067250  9.823667  -0.374547
C  -3.721000  7.631998  -0.025791
C  5.067250  8.371221  -0.352342
C  -3.721000  6.197900  -0.021662
C  5.067250  12.724286  0.078294
C  3.815571  12.029000  0.024318
C  3.815571  10.553000  -0.116427
C  2.546438  12.724286  0.021150
C  1.302141  12.029000  0.104340
C  6.330357  3.272000  -0.227890
C  15.145562  12.724286  0.000775
C  0.021251  12.724286  0.050933
C  13.876357  12.029000  -0.005131
C  -1.214289  12.029000  0.033460
C  12.623562  12.724286  0.046882
C  6.330357  1.797813  -0.118430
C  8.830644  1.797813  -0.389523
C  11.361143  1.797813  -0.118113
C  10.098375  1.101000  -0.213108
C  7.582124  1.101000  -0.209239
C  5.067250  1.101000  -0.025507
C  12.623562  1.101000  -0.043510
