142
frame	601
H  17.693000  13.826000  0.000000
H  19.858000  12.564000  0.000000
H  21.106000  10.363000  0.000000
H  22.366000  5.656000  0.000000
H  22.367000  8.165000  0.000000
H  19.852000  1.261000  0.000000
H  17.690000  -0.000000  0.000000
H  21.104000  3.459000  0.000000
H  2.530000  -0.005000  0.000000
H  15.160000  -0.002000  0.000000
H  0.000000  -0.000000  0.000000
H  -2.163000  1.262000  0.000000
H  -3.415000  3.463000  0.000000
H  -4.677000  8.168000  0.000000
H  -4.678000  5.662000  0.000000
H  -2.159000  12.565000  0.000000
H  10.109000  13.837000  0.000000
H  7.585000  13.838000  0.000000
H  5.062000  13.833000  0.000000
H  2.535000  13.828000  0.000000
H  15.163000  13.830000  0.000000
H  0.007000  13.825000  0.000000
H  -3.412000  10.366000  0.000000
H  12.635000  13.835000  0.000000
H  10.108000  -0.010000  0.000000
H  7.583000  -0.012000  0.000000
H  5.058000  -0.011000  0.000000
H  12.631000  -0.009000  0.000000
C  16.391568  10.553000  0.139716
C  16.391568  12.029000  0.017797
C  17.670751  12.724286  0.072962
C  17.670751  8.371221  0.250410
C  17.670751  9.823667  0.075470
C  18.905140  10.553000  -0.027646
C  18.905140  12.029000  0.000142
C  17.670751  4.000000  0.069960
C  17.670751  5.453610  0.232683
C  18.905140  6.197900  0.269179
C  18.905140  7.631998  0.280457
C  20.154752  8.371221  0.130384
C  20.154752  9.823667  -0.021892
C  18.905140  3.272000  -0.010876
C  20.154752  4.000000  -0.002891
C  20.154752  5.453610  0.135795
C  21.411000  6.197900  0.143249
C  21.411000  7.631998  0.137270
C  17.670751  1.101000  0.065861
C  18.905140  1.797813  0.009733
C  5.067250  5.453610  0.087196
C  5.067250  4.000000  -0.064238
C  3.815571  3.272000  0.026469
C  3.815571  1.797813  -0.117610
C  11.361143  3.272000  -0.119677
C  2.546438  1.101000  -0.101509
C  3.815571  7.631998  0.242936
C  3.815571  6.197900  0.232036
C  11.361143  7.631998  0.041646
C  2.546438  5.453610  0.269705
C  11.361143  6.197900  0.033713
C  2.546438  4.000000  0.218402
C  10.098375  5.453610  -0.336812
C  16.391568  3.272000  0.139316
C  1.302141  3.272000  0.121407
C  10.098375  4.000000  -0.239124
C  16.391568  1.797813  0.014490
C  1.302141  1.797813  -0.005862
C  8.830644  3.272000  -0.337590
C  15.145562  1.101000  -0.092348
C  0.021251  1.101000  0.073226
C  11.361143  12.029000  -0.074169
C  2.546438  9.823667  0.250033
C  11.361143  10.553000  -0.058870
C  2.546438  8.371221  0.273731
C  10.098375  9.823667  -0.188650
C  16.391568  7.631998  0.277411
C  1.302141  7.631998  0.256839
C  10.098375  8.371221  -0.331152
C  16.391568  6.197900  0.273309
C  1.302141  6.197900  0.241699
C  15.145562  5.453610  0.269717
C  0.021251  5.453610  0.201924
C  8.830644  7.631998  -0.667812
C  8.830644  6.197900  -0.683683
C  15.145562  4.000000  0.220709
C  0.021251  4.000000  0.040040
C  7.582124  5.453610  -0.322219
C  13.876357  3.272000  0.032852
C  -1.214289  3.272000  -0.059199
C  7.582124  4.000000  -0.242929
C  13.876357  1.797813  -0.118356
C  -1.214289  1.797813  -0.022043
C  10.098375  12.724286  -0.161770
C  1.302141  10.553000  0.146903
C  8.830644  12.029000  -0.283369
C  15.145562  9.823667  0.245190
C  0.021251  9.823667  0.052185
C  8.830644  10.553000  -0.270288
C  15.145562  8.371221  0.277624
C  0.021251  8.371221  0.220539
C  7.582124  9.823667  -0.185450
C  13.876357  7.631998  0.225430
C  -1.214289  7.631998  0.234358
C  7.582124  8.371221  -0.296458
C  13.876357  6.197900  0.216186
C  -1.214289  6.197900  0.240008
C  6.330357  7.631998  0.057334
C  12.623562  5.453610  0.077385
C  -2.463372  5.453610  0.084270
C  6.330357  6.197900  0.043153
C  12.623562  4.000000  -0.074558
C  -2.463372  4.000000  -0.044842
C  7.582124  12.724286  -0.128797
C  13.876357  10.553000  0.068717
C  -1.214289  10.553000  -0.048786
C  6.330357  12.029000  -0.039621
C  12.623562  9.823667  -0.024650
C  -2.463372  9.823667  -0.055788
C  6.330357  10.553000  -0.066595
C  12.623562  8.371221  0.089749
C  -2.463372  8.371221  0.088374
C  5.067250  9.823667  -0.007088
C  -3.721000  7.631998  0.048104
C  5.067250  8.371221  0.103560
C  -3.721000  6.197900  0.056366
C  5.067250  12.724286  0.042758
C  3.815571  12.029000  -0.048677
C  3.815571  10.553000  0.081678
C  2.546438  12.724286  -0.036688
C  1.302141  12.029000  0.035437
C  6.330357  3.272000  -0.121454
C  15.145562  12.724286  -0.067623
C  0.021251  12.724286  0.101285
C  13.876357  12.029000  -0.064284
C  -1.214289  12.029000  0.004542
C  12.623562  12.724286  0.009200
C  6.330357  1.797813  -0.139631
C  8.830644  1.797813  -0.388733
C  11.361143  1.797813  -0.147076
C  10.098375  1.101000  -0.269232
C  7.582124  1.101000  -0.258243
C  5.067250  1.101000  -0.060083
C  12.623562  1.101000  -0.063740
