142
frame	642
H  17.693000  13.826000  0.000000
H  19.858000  12.564000  0.000000
H  21.106000  10.363000  0.000000
H  22.366000  5.656000  0.000000
H  22.367000  8.165000  0.000000
H  19.852000  1.261000  0.000000
H  17.690000  -0.000000  0.000000
H  21.104000  3.459000  0.000000
H  2.530000  -0.005000  0.000000
H  15.160000  -0.002000  0.000000
H  0.000000  -0.000000  0.000000
H  -2.163000  1.262000  0.000000
H  -3.415000  3.463000  0.000000
H  -4.677000  8.168000  0.000000
H  -4.678000  5.662000  0.000000
H  -2.159000  12.565000  0.000000
H  10.109000  13.837000  0.000000
H  7.585000  13.838000  0.000000
H  5.062000  13.833000  0.000000
H  2.535000  13.828000  0.000000
H  15.163000  13.830000  0.000000
H  0.007000  13.825000  0.000000
H  -3.412000  10.366000  0.000000
H  12.635000  13.835000  0.000000
H  10.108000  -0.010000  0.000000
H  7.583000  -0.012000  0.000000
H  5.058000  -0.011000  0.000000
H  12.631000  -0.009000  0.000000
C  16.391568  10.553000  0.125402
C  16.391568  12.029000  -0.014248
C  17.670751  12.724286  -0.106502
C  17.670751  8.371221  0.467654
C  17.670751  9.823667  0.245959
C  18.905140  10.553000  0.183459
C  18.905140  12.029000  -0.063188
C  17.670751  4.000000  0.249442
C  17.670751  5.453610  0.486815
C  18.905140  6.197900  0.382943
C  18.905140  7.631998  0.372352
C  20.154752  8.371221  0.321634
C  20.154752  9.823667  0.252169
C  18.905140  3.272000  0.197573
C  20.154752  4.000000  0.268483
C  20.154752  5.453610  0.335602
C  21.411000  6.197900  0.338718
C  21.411000  7.631998  0.332667
C  17.670751  1.101000  -0.111804
C  18.905140  1.797813  -0.044091
C  5.067250  5.453610  -0.039959
C  5.067250  4.000000  0.049081
C  3.815571  3.272000  0.237358
C  3.815571  1.797813  0.147246
C  11.361143  3.272000  -0.127326
C  2.546438  1.101000  0.111236
C  3.815571  7.631998  0.306032
C  3.815571  6.197900  0.284400
C  11.361143  7.631998  -0.280786
C  2.546438  5.453610  0.387500
C  11.361143  6.197900  -0.298278
C  2.546438  4.000000  0.216428
C  10.098375  5.453610  -0.171425
C  16.391568  3.272000  0.113487
C  1.302141  3.272000  0.110882
C  10.098375  4.000000  -0.262191
C  16.391568  1.797813  -0.031699
C  1.302141  1.797813  -0.035683
C  8.830644  3.272000  -0.261585
C  15.145562  1.101000  0.092755
C  0.021251  1.101000  -0.126719
C  11.361143  12.029000  -0.002569
C  2.546438  9.823667  0.256205
C  11.361143  10.553000  -0.081184
C  2.546438  8.371221  0.413748
C  10.098375  9.823667  -0.212760
C  16.391568  7.631998  0.603883
C  1.302141  7.631998  0.610840
C  10.098375  8.371221  -0.147113
C  16.391568  6.197900  0.612327
C  1.302141  6.197900  0.591559
C  15.145562  5.453610  0.393399
C  0.021251  5.453610  0.461540
C  8.830644  7.631998  0.065606
C  8.830644  6.197900  0.047023
C  15.145562  4.000000  0.216795
C  0.021251  4.000000  0.229152
C  7.582124  5.453610  -0.148081
C  13.876357  3.272000  0.228699
C  -1.214289  3.272000  0.157628
C  7.582124  4.000000  -0.255099
C  13.876357  1.797813  0.130476
C  -1.214289  1.797813  -0.077012
C  10.098375  12.724286  0.070620
C  1.302141  10.553000  0.150707
C  8.830644  12.029000  -0.007999
C  15.145562  9.823667  0.241933
C  0.021251  9.823667  0.245937
C  8.830644  10.553000  -0.194540
C  15.145562  8.371221  0.404302
C  0.021251  8.371221  0.466532
C  7.582124  9.823667  -0.205506
C  13.876357  7.631998  0.290734
C  -1.214289  7.631998  0.337403
C  7.582124  8.371221  -0.134655
C  13.876357  6.197900  0.270303
C  -1.214289  6.197900  0.351858
C  6.330357  7.631998  -0.262162
C  12.623562  5.453610  -0.060597
C  -2.463372  5.453610  0.241726
C  6.330357  6.197900  -0.277346
C  12.623562  4.000000  0.025158
C  -2.463372  4.000000  0.195924
C  7.582124  12.724286  0.065730
C  13.876357  10.553000  0.249211
C  -1.214289  10.553000  0.158549
C  6.330357  12.029000  0.022182
C  12.623562  9.823667  0.056972
C  -2.463372  9.823667  0.193771
C  6.330357  10.553000  -0.052094
C  12.623562  8.371221  -0.040121
C  -2.463372  8.371221  0.248929
C  5.067250  9.823667  0.108026
C  -3.721000  7.631998  0.223635
C  5.067250  8.371221  -0.017536
C  -3.721000  6.197900  0.228345
C  5.067250  12.724286  0.111221
C  3.815571  12.029000  0.230464
C  3.815571  10.553000  0.282715
C  2.546438  12.724286  0.185939
C  1.302141  12.029000  0.009551
C  6.330357  3.272000  -0.126326
C  15.145562  12.724286  0.129912
C  0.021251  12.724286  -0.112263
C  13.876357  12.029000  0.178990
C  -1.214289  12.029000  -0.084905
C  12.623562  12.724286  0.068270
C  6.330357  1.797813  -0.095843
C  8.830644  1.797813  -0.130080
C  11.361143  1.797813  -0.105496
C  10.098375  1.101000  -0.066703
C  7.582124  1.101000  -0.079598
C  5.067250  1.101000  -0.014407
C  12.623562  1.101000  -0.033444
