142
frame	3
H  17.693000  13.826000  0.000000
H  19.858000  12.564000  0.000000
H  21.106000  10.363000  0.000000
H  22.366000  5.656000  0.000000
H  22.367000  8.165000  0.000000
H  19.852000  1.261000  0.000000
H  17.690000  -0.000000  0.000000
H  21.104000  3.459000  0.000000
H  2.530000  -0.005000  0.000000
H  15.160000  -0.002000  0.000000
H  0.000000  -0.000000  0.000000
H  -2.163000  1.262000  0.000000
H  -3.415000  3.463000  0.000000
H  -4.677000  8.168000  0.000000
H  -4.678000  5.662000  0.000000
H  -2.159000  12.565000  0.000000
H  10.109000  13.837000  0.000000
H  7.585000  13.838000  0.000000
H  5.062000  13.833000  0.000000
H  2.535000  13.828000  0.000000
H  15.163000  13.830000  0.000000
H  0.007000  13.825000  0.000000
H  -3.412000  10.366000  0.000000
H  12.635000  13.835000  0.000000
H  10.108000  -0.010000  0.000000
H  7.583000  -0.012000  0.000000
H  5.058000  -0.011000  0.000000
H  12.631000  -0.009000  0.000000
C  16.391568  10.553000  0.024490
C  16.391568  12.029000  0.012410
C  17.670751  12.724286  0.017171
C  17.670751  8.371221  0.062736
C  17.670751  9.823667  0.051959
C  18.905140  10.553000  0.073564
C  18.905140  12.029000  0.047322
C  17.670751  4.000000  0.051163
C  17.670751  5.453610  0.062348
C  18.905140  6.197900  0.106215
C  18.905140  7.631998  0.104377
C  20.154752  8.371221  0.145330
C  20.154752  9.823667  0.123931
C  18.905140  3.272000  0.083407
C  20.154752  4.000000  0.138927
C  20.154752  5.453610  0.153041
C  21.411000  6.197900  0.211069
C  21.411000  7.631998  0.206968
C  17.670751  1.101000  0.016091
C  18.905140  1.797813  0.061129
C  5.067250  5.453610  0.025220
C  5.067250  4.000000  0.007054
C  3.815571  3.272000  0.001087
C  3.815571  1.797813  -0.028001
C  11.361143  3.272000  -0.042473
C  2.546438  1.101000  -0.026923
C  3.815571  7.631998  0.054854
C  3.815571  6.197900  0.041722
C  11.361143  7.631998  0.029623
C  2.546438  5.453610  0.040784
C  11.361143  6.197900  0.019428
C  2.546438  4.000000  0.021609
C  10.098375  5.453610  0.406867
C  16.391568  3.272000  0.011454
C  1.302141  3.272000  0.024558
C  10.098375  4.000000  -0.007400
C  16.391568  1.797813  -0.006710
C  1.302141  1.797813  0.002625
C  8.830644  3.272000  -0.029991
C  15.145562  1.101000  -0.040042
C  0.021251  1.101000  0.013912
C  11.361143  12.029000  0.032539
C  2.546438  9.823667  0.059311
C  11.361143  10.553000  0.027511
C  2.546438  8.371221  0.059181
C  10.098375  9.823667  0.053528
C  16.391568  7.631998  0.036756
C  1.302141  7.631998  0.059457
C  10.098375  8.371221  0.350233
C  16.391568  6.197900  0.033573
C  1.302141  6.197900  0.053300
C  15.145562  5.453610  0.007855
C  0.021251  5.453610  0.058321
C  8.830644  7.631998  0.888082
C  8.830644  6.197900  0.873203
C  15.145562  4.000000  -0.005256
C  0.021251  4.000000  0.048124
C  7.582124  5.453610  0.424391
C  13.876357  3.272000  -0.029054
C  -1.214289  3.272000  0.058533
C  7.582124  4.000000  0.007491
C  13.876357  1.797813  -0.050001
C  -1.214289  1.797813  0.042778
C  10.098375  12.724286  0.053259
C  1.302141  10.553000  0.054582
C  8.830644  12.029000  0.061968
C  15.145562  9.823667  0.016446
C  0.021251  9.823667  0.058890
C  8.830644  10.553000  0.057974
C  15.145562  8.371221  0.018267
C  0.021251  8.371221  0.063705
C  7.582124  9.823667  0.077334
C  13.876357  7.631998  0.007336
C  -1.214289  7.631998  0.072884
C  7.582124  8.371221  0.459704
C  13.876357  6.197900  -0.001843
C  -1.214289  6.197900  0.073711
C  6.330357  7.631998  0.068458
C  12.623562  5.453610  -0.014617
C  -2.463372  5.453610  0.085759
C  6.330357  6.197900  0.051336
C  12.623562  4.000000  -0.026674
C  -2.463372  4.000000  0.081141
C  7.582124  12.724286  0.074579
C  13.876357  10.553000  0.012959
C  -1.214289  10.553000  0.059659
C  6.330357  12.029000  0.070463
C  12.623562  9.823667  0.018974
C  -2.463372  9.823667  0.071186
C  6.330357  10.553000  0.065527
C  12.623562  8.371221  0.008735
C  -2.463372  8.371221  0.080057
C  5.067250  9.823667  0.066737
C  -3.721000  7.631998  0.096016
C  5.067250  8.371221  0.055635
C  -3.721000  6.197900  0.100151
C  5.067250  12.724286  0.065880
C  3.815571  12.029000  0.059039
C  3.815571  10.553000  0.063076
C  2.546438  12.724286  0.048047
C  1.302141  12.029000  0.046763
C  6.330357  3.272000  -0.018472
C  15.145562  12.724286  0.001949
C  0.021251  12.724286  0.039962
C  13.876357  12.029000  0.009058
C  -1.214289  12.029000  0.046925
C  12.623562  12.724286  0.018049
C  6.330357  1.797813  -0.049518
C  8.830644  1.797813  -0.063967
C  11.361143  1.797813  -0.068454
C  10.098375  1.101000  -0.079586
C  7.582124  1.101000  -0.070249
C  5.067250  1.101000  -0.054015
C  12.623562  1.101000  -0.073875
