142
frame	754
H  17.693000  13.826000  0.000000
H  19.858000  12.564000  0.000000
H  21.106000  10.363000  0.000000
H  22.366000  5.656000  0.000000
H  22.367000  8.165000  0.000000
H  19.852000  1.261000  0.000000
H  17.690000  -0.000000  0.000000
H  21.104000  3.459000  0.000000
H  2.530000  -0.005000  0.000000
H  15.160000  -0.002000  0.000000
H  0.000000  -0.000000  0.000000
H  -2.163000  1.262000  0.000000
H  -3.415000  3.463000  0.000000
H  -4.677000  8.168000  0.000000
H  -4.678000  5.662000  0.000000
H  -2.159000  12.565000  0.000000
H  10.109000  13.837000  0.000000
H  7.585000  13.838000  0.000000
H  5.062000  13.833000  0.000000
H  2.535000  13.828000  0.000000
H  15.163000  13.830000  0.000000
H  0.007000  13.825000  0.000000
H  -3.412000  10.366000  0.000000
H  12.635000  13.835000  0.000000
H  10.108000  -0.010000  0.000000
H  7.583000  -0.012000  0.000000
H  5.058000  -0.011000  0.000000
H  12.631000  -0.009000  0.000000
C  16.391568  10.553000  0.383289
C  16.391568  12.029000  0.208304
C  17.670751  12.724286  0.118310
C  17.670751  8.371221  0.586620
C  17.670751  9.823667  0.398106
C  18.905140  10.553000  0.301879
C  18.905140  12.029000  0.199483
C  17.670751  4.000000  0.393605
C  17.670751  5.453610  0.580054
C  18.905140  6.197900  0.610752
C  18.905140  7.631998  0.628976
C  20.154752  8.371221  0.423704
C  20.154752  9.823667  0.324953
C  18.905140  3.272000  0.313195
C  20.154752  4.000000  0.339949
C  20.154752  5.453610  0.438609
C  21.411000  6.197900  0.313488
C  21.411000  7.631998  0.300480
C  17.670751  1.101000  0.110731
C  18.905140  1.797813  0.219919
C  5.067250  5.453610  0.118245
C  5.067250  4.000000  0.139689
C  3.815571  3.272000  0.335374
C  3.815571  1.797813  0.237716
C  11.361143  3.272000  0.028800
C  2.546438  1.101000  0.083916
C  3.815571  7.631998  0.298410
C  3.815571  6.197900  0.280310
C  11.361143  7.631998  0.220058
C  2.546438  5.453610  0.524081
C  11.361143  6.197900  0.215817
C  2.546438  4.000000  0.484666
C  10.098375  5.453610  0.356980
C  16.391568  3.272000  0.372469
C  1.302141  3.272000  0.373339
C  10.098375  4.000000  0.226467
C  16.391568  1.797813  0.192232
C  1.302141  1.797813  0.203040
C  8.830644  3.272000  0.147148
C  15.145562  1.101000  0.044692
C  0.021251  1.101000  0.104137
C  11.361143  12.029000  0.189471
C  2.546438  9.823667  0.538021
C  11.361143  10.553000  0.120872
C  2.546438  8.371221  0.554213
C  10.098375  9.823667  0.303967
C  16.391568  7.631998  0.589142
C  1.302141  7.631998  0.601382
C  10.098375  8.371221  0.388707
C  16.391568  6.197900  0.572122
C  1.302141  6.197900  0.576167
C  15.145562  5.453610  0.501479
C  0.021251  5.453610  0.560003
C  8.830644  7.631998  0.583820
C  8.830644  6.197900  0.554729
C  15.145562  4.000000  0.455297
C  0.021251  4.000000  0.361490
C  7.582124  5.453610  0.391653
C  13.876357  3.272000  0.307714
C  -1.214289  3.272000  0.278658
C  7.582124  4.000000  0.233714
C  13.876357  1.797813  0.220126
C  -1.214289  1.797813  0.202989
C  10.098375  12.724286  0.085798
C  1.302141  10.553000  0.407544
C  8.830644  12.029000  0.112568
C  15.145562  9.823667  0.476201
C  0.021251  9.823667  0.383813
C  8.830644  10.553000  0.250210
C  15.145562  8.371221  0.517921
C  0.021251  8.371221  0.584330
C  7.582124  9.823667  0.308095
C  13.876357  7.631998  0.266085
C  -1.214289  7.631998  0.594487
C  7.582124  8.371221  0.435419
C  13.876357  6.197900  0.255922
C  -1.214289  6.197900  0.585519
C  6.330357  7.631998  0.270414
C  12.623562  5.453610  0.074304
C  -2.463372  5.453610  0.374587
C  6.330357  6.197900  0.256499
C  12.623562  4.000000  0.104901
C  -2.463372  4.000000  0.272698
C  7.582124  12.724286  0.090885
C  13.876357  10.553000  0.355400
C  -1.214289  10.553000  0.283335
C  6.330357  12.029000  0.219779
C  12.623562  9.823667  0.158441
C  -2.463372  9.823667  0.272637
C  6.330357  10.553000  0.137094
C  12.623562  8.371221  0.097885
C  -2.463372  8.371221  0.369524
C  5.067250  9.823667  0.224361
C  -3.721000  7.631998  0.198729
C  5.067250  8.371221  0.140636
C  -3.721000  6.197900  0.189813
C  5.067250  12.724286  0.263344
C  3.815571  12.029000  0.328082
C  3.815571  10.553000  0.420547
C  2.546438  12.724286  0.148465
C  1.302141  12.029000  0.248513
C  6.330357  3.272000  0.049535
C  15.145562  12.724286  0.092467
C  0.021251  12.724286  0.121950
C  13.876357  12.029000  0.272076
C  -1.214289  12.029000  0.223855
C  12.623562  12.724286  0.207402
C  6.330357  1.797813  0.097241
C  8.830644  1.797813  -0.031134
C  11.361143  1.797813  0.104684
C  10.098375  1.101000  -0.053536
C  7.582124  1.101000  -0.061598
C  5.067250  1.101000  0.132242
C  12.623562  1.101000  0.147045
