142
frame	716
H  17.693000  13.826000  0.000000
H  19.858000  12.564000  0.000000
H  21.106000  10.363000  0.000000
H  22.366000  5.656000  0.000000
H  22.367000  8.165000  0.000000
H  19.852000  1.261000  0.000000
H  17.690000  -0.000000  0.000000
H  21.104000  3.459000  0.000000
H  2.530000  -0.005000  0.000000
H  15.160000  -0.002000  0.000000
H  0.000000  -0.000000  0.000000
H  -2.163000  1.262000  0.000000
H  -3.415000  3.463000  0.000000
H  -4.677000  8.168000  0.000000
H  -4.678000  5.662000  0.000000
H  -2.159000  12.565000  0.000000
H  10.109000  13.837000  0.000000
H  7.585000  13.838000  0.000000
H  5.062000  13.833000  0.000000
H  2.535000  13.828000  0.000000
H  15.163000  13.830000  0.000000
H  0.007000  13.825000  0.000000
H  -3.412000  10.366000  0.000000
H  12.635000  13.835000  0.000000
H  10.108000  -0.010000  0.000000
H  7.583000  -0.012000  0.000000
H  5.058000  -0.011000  0.000000
H  12.631000  -0.009000  0.000000
C  16.391568  10.553000  0.480940
C  16.391568  12.029000  0.383637
C  17.670751  12.724286  0.262628
C  17.670751  8.371221  0.621064
C  17.670751  9.823667  0.708886
C  18.905140  10.553000  0.583173
C  18.905140  12.029000  0.297458
C  17.670751  4.000000  0.715343
C  17.670751  5.453610  0.640770
C  18.905140  6.197900  0.585330
C  18.905140  7.631998  0.591560
C  20.154752  8.371221  0.540198
C  20.154752  9.823667  0.489292
C  18.905140  3.272000  0.586889
C  20.154752  4.000000  0.501183
C  20.154752  5.453610  0.552326
C  21.411000  6.197900  0.453935
C  21.411000  7.631998  0.454525
C  17.670751  1.101000  0.267016
C  18.905140  1.797813  0.303494
C  5.067250  5.453610  0.216324
C  5.067250  4.000000  0.208588
C  3.815571  3.272000  0.140948
C  3.815571  1.797813  0.107248
C  11.361143  3.272000  0.111463
C  2.546438  1.101000  0.180702
C  3.815571  7.631998  0.247846
C  3.815571  6.197900  0.220488
C  11.361143  7.631998  0.165531
C  2.546438  5.453610  0.246604
C  11.361143  6.197900  0.142278
C  2.546438  4.000000  0.183475
C  10.098375  5.453610  0.100368
C  16.391568  3.272000  0.454929
C  1.302141  3.272000  0.469143
C  10.098375  4.000000  0.088892
C  16.391568  1.797813  0.379704
C  1.302141  1.797813  0.370728
C  8.830644  3.272000  -0.004023
C  15.145562  1.101000  0.184491
C  0.021251  1.101000  0.267831
C  11.361143  12.029000  0.092629
C  2.546438  9.823667  0.232555
C  11.361143  10.553000  0.166075
C  2.546438  8.371221  0.266177
C  10.098375  9.823667  0.153073
C  16.391568  7.631998  0.373453
C  1.302141  7.631998  0.368320
C  10.098375  8.371221  0.141017
C  16.391568  6.197900  0.360035
C  1.302141  6.197900  0.363896
C  15.145562  5.453610  0.223013
C  0.021251  5.453610  0.618283
C  8.830644  7.631998  0.124644
C  8.830644  6.197900  0.099574
C  15.145562  4.000000  0.170127
C  0.021251  4.000000  0.710254
C  7.582124  5.453610  0.097925
C  13.876357  3.272000  0.113433
C  -1.214289  3.272000  0.558263
C  7.582124  4.000000  0.100094
C  13.876357  1.797813  0.083638
C  -1.214289  1.797813  0.281047
C  10.098375  12.724286  0.134645
C  1.302141  10.553000  0.506160
C  8.830644  12.029000  0.222058
C  15.145562  9.823667  0.188275
C  0.021251  9.823667  0.729905
C  8.830644  10.553000  0.088207
C  15.145562  8.371221  0.234578
C  0.021251  8.371221  0.620329
C  7.582124  9.823667  0.182384
C  13.876357  7.631998  0.190995
C  -1.214289  7.631998  0.515927
C  7.582124  8.371221  0.139681
C  13.876357  6.197900  0.171708
C  -1.214289  6.197900  0.516899
C  6.330357  7.631998  0.194025
C  12.623562  5.453610  0.172386
C  -2.463372  5.453610  0.473243
C  6.330357  6.197900  0.155732
C  12.623562  4.000000  0.186492
C  -2.463372  4.000000  0.436069
C  7.582124  12.724286  0.163564
C  13.876357  10.553000  0.146793
C  -1.214289  10.553000  0.566486
C  6.330357  12.029000  0.132947
C  12.623562  9.823667  0.225700
C  -2.463372  9.823667  0.427972
C  6.330357  10.553000  0.217807
C  12.623562  8.371221  0.216077
C  -2.463372  8.371221  0.463111
C  5.067250  9.823667  0.281863
C  -3.721000  7.631998  0.330288
C  5.067250  8.371221  0.259178
C  -3.721000  6.197900  0.333758
C  5.067250  12.724286  0.027223
C  3.815571  12.029000  0.192371
C  3.815571  10.553000  0.198354
C  2.546438  12.724286  0.265429
C  1.302141  12.029000  0.437499
C  6.330357  3.272000  0.111711
C  15.145562  12.724286  0.206272
C  0.021251  12.724286  0.291234
C  13.876357  12.029000  0.133442
C  -1.214289  12.029000  0.279914
C  12.623562  12.724286  -0.035571
C  6.330357  1.797813  0.007867
C  8.830644  1.797813  0.104943
C  11.361143  1.797813  -0.013155
C  10.098375  1.101000  0.006233
C  7.582124  1.101000  0.017214
C  5.067250  1.101000  -0.096974
C  12.623562  1.101000  -0.138664
