142
frame	161
H  17.693000  13.826000  0.000000
H  19.858000  12.564000  0.000000
H  21.106000  10.363000  0.000000
H  22.366000  5.656000  0.000000
H  22.367000  8.165000  0.000000
H  19.852000  1.261000  0.000000
H  17.690000  -0.000000  0.000000
H  21.104000  3.459000  0.000000
H  2.530000  -0.005000  0.000000
H  15.160000  -0.002000  0.000000
H  0.000000  -0.000000  0.000000
H  -2.163000  1.262000  0.000000
H  -3.415000  3.463000  0.000000
H  -4.677000  8.168000  0.000000
H  -4.678000  5.662000  0.000000
H  -2.159000  12.565000  0.000000
H  10.109000  13.837000  0.000000
H  7.585000  13.838000  0.000000
H  5.062000  13.833000  0.000000
H  2.535000  13.828000  0.000000
H  15.163000  13.830000  0.000000
H  0.007000  13.825000  0.000000
H  -3.412000  10.366000  0.000000
H  12.635000  13.835000  0.000000
H  10.108000  -0.010000  0.000000
H  7.583000  -0.012000  0.000000
H  5.058000  -0.011000  0.000000
H  12.631000  -0.009000  0.000000
C  16.391568  10.553000  0.051370
C  16.391568  12.029000  0.080244
C  17.670751  12.724286  0.241350
C  17.670751  8.371221  0.101081
C  17.670751  9.823667  0.130041
C  18.905140  10.553000  0.310370
C  18.905140  12.029000  0.383008
C  17.670751  4.000000  0.140305
C  17.670751  5.453610  0.092710
C  18.905140  6.197900  0.254913
C  18.905140  7.631998  0.257136
C  20.154752  8.371221  0.240038
C  20.154752  9.823667  0.267898
C  18.905140  3.272000  0.336651
C  20.154752  4.000000  0.277391
C  20.154752  5.453610  0.250239
C  21.411000  6.197900  0.196864
C  21.411000  7.631998  0.188516
C  17.670751  1.101000  0.230644
C  18.905140  1.797813  0.386333
C  5.067250  5.453610  -0.417803
C  5.067250  4.000000  -0.462737
C  3.815571  3.272000  -0.281680
C  3.815571  1.797813  -0.317490
C  11.361143  3.272000  -0.592873
C  2.546438  1.101000  -0.135368
C  3.815571  7.631998  -0.299919
C  3.815571  6.197900  -0.298870
C  11.361143  7.631998  -0.466483
C  2.546438  5.453610  -0.124001
C  11.361143  6.197900  -0.480957
C  2.546438  4.000000  -0.086129
C  10.098375  5.453610  -0.608237
C  16.391568  3.272000  0.033396
C  1.302141  3.272000  0.025722
C  10.098375  4.000000  -0.785287
C  16.391568  1.797813  0.062199
C  1.302141  1.797813  0.060901
C  8.830644  3.272000  -0.712926
C  15.145562  1.101000  -0.135880
C  0.021251  1.101000  0.232629
C  11.361143  12.029000  -0.373260
C  2.546438  9.823667  -0.054346
C  11.361143  10.553000  -0.533769
C  2.546438  8.371221  -0.105624
C  10.098375  9.823667  -0.715399
C  16.391568  7.631998  -0.060647
C  1.302141  7.631998  -0.056631
C  10.098375  8.371221  -0.588092
C  16.391568  6.197900  -0.052774
C  1.302141  6.197900  -0.068679
C  15.145562  5.453610  -0.136067
C  0.021251  5.453610  0.075955
C  8.830644  7.631998  -0.493100
C  8.830644  6.197900  -0.516783
C  15.145562  4.000000  -0.084983
C  0.021251  4.000000  0.116303
C  7.582124  5.453610  -0.597101
C  13.876357  3.272000  -0.289492
C  -1.214289  3.272000  0.311977
C  7.582124  4.000000  -0.781969
C  13.876357  1.797813  -0.311515
C  -1.214289  1.797813  0.390069
C  10.098375  12.724286  -0.184992
C  1.302141  10.553000  0.055535
C  8.830644  12.029000  -0.439932
C  15.145562  9.823667  -0.065517
C  0.021251  9.823667  0.135636
C  8.830644  10.553000  -0.642495
C  15.145562  8.371221  -0.139732
C  0.021251  8.371221  0.084322
C  7.582124  9.823667  -0.714472
C  13.876357  7.631998  -0.313276
C  -1.214289  7.631998  0.218586
C  7.582124  8.371221  -0.573128
C  13.876357  6.197900  -0.327233
C  -1.214289  6.197900  0.222406
C  6.330357  7.631998  -0.448550
C  12.623562  5.453610  -0.422048
C  -2.463372  5.453610  0.188427
C  6.330357  6.197900  -0.468835
C  12.623562  4.000000  -0.479773
C  -2.463372  4.000000  0.232458
C  7.582124  12.724286  -0.172153
C  13.876357  10.553000  -0.239770
C  -1.214289  10.553000  0.313689
C  6.330357  12.029000  -0.345624
C  12.623562  9.823667  -0.425225
C  -2.463372  9.823667  0.221155
C  6.330357  10.553000  -0.510483
C  12.623562  8.371221  -0.414829
C  -2.463372  8.371221  0.182436
C  5.067250  9.823667  -0.412190
C  -3.721000  7.631998  0.080527
C  5.067250  8.371221  -0.400431
C  -3.721000  6.197900  0.085614
C  5.067250  12.724286  -0.187395
C  3.815571  12.029000  -0.230761
C  3.815571  10.553000  -0.218000
C  2.546438  12.724286  -0.044188
C  1.302141  12.029000  0.111770
C  6.330357  3.272000  -0.592175
C  15.145562  12.724286  -0.085796
C  0.021251  12.724286  0.249318
C  13.876357  12.029000  -0.250082
C  -1.214289  12.029000  0.385737
C  12.623562  12.724286  -0.234653
C  6.330357  1.797813  -0.464571
C  8.830644  1.797813  -0.555307
C  11.361143  1.797813  -0.472184
C  10.098375  1.101000  -0.314487
C  7.582124  1.101000  -0.305289
C  5.067250  1.101000  -0.306667
C  12.623562  1.101000  -0.313054
