142
frame	837
H  17.693000  13.826000  0.000000
H  19.858000  12.564000  0.000000
H  21.106000  10.363000  0.000000
H  22.366000  5.656000  0.000000
H  22.367000  8.165000  0.000000
H  19.852000  1.261000  0.000000
H  17.690000  -0.000000  0.000000
H  21.104000  3.459000  0.000000
H  2.530000  -0.005000  0.000000
H  15.160000  -0.002000  0.000000
H  0.000000  -0.000000  0.000000
H  -2.163000  1.262000  0.000000
H  -3.415000  3.463000  0.000000
H  -4.677000  8.168000  0.000000
H  -4.678000  5.662000  0.000000
H  -2.159000  12.565000  0.000000
H  10.109000  13.837000  0.000000
H  7.585000  13.838000  0.000000
H  5.062000  13.833000  0.000000
H  2.535000  13.828000  0.000000
H  15.163000  13.830000  0.000000
H  0.007000  13.825000  0.000000
H  -3.412000  10.366000  0.000000
H  12.635000  13.835000  0.000000
H  10.108000  -0.010000  0.000000
H  7.583000  -0.012000  0.000000
H  5.058000  -0.011000  0.000000
H  12.631000  -0.009000  0.000000
C  16.391568  10.553000  0.127328
C  16.391568  12.029000  0.012809
C  17.670751  12.724286  0.037564
C  17.670751  8.371221  0.146974
C  17.670751  9.823667  0.193089
C  18.905140  10.553000  0.235704
C  18.905140  12.029000  0.168986
C  17.670751  4.000000  0.177400
C  17.670751  5.453610  0.146912
C  18.905140  6.197900  0.084706
C  18.905140  7.631998  0.089742
C  20.154752  8.371221  0.166854
C  20.154752  9.823667  0.203771
C  18.905140  3.272000  0.237726
C  20.154752  4.000000  0.217839
C  20.154752  5.453610  0.186395
C  21.411000  6.197900  0.192419
C  21.411000  7.631998  0.192198
C  17.670751  1.101000  0.028702
C  18.905140  1.797813  0.184366
C  5.067250  5.453610  0.783373
C  5.067250  4.000000  0.573504
C  3.815571  3.272000  0.386217
C  3.815571  1.797813  0.147202
C  11.361143  3.272000  0.363992
C  2.546438  1.101000  -0.043565
C  3.815571  7.631998  0.960493
C  3.815571  6.197900  0.939521
C  11.361143  7.631998  0.681281
C  2.546438  5.453610  0.610099
C  11.361143  6.197900  0.662242
C  2.546438  4.000000  0.351674
C  10.098375  5.453610  0.471463
C  16.391568  3.272000  0.111250
C  1.302141  3.272000  0.101114
C  10.098375  4.000000  0.380121
C  16.391568  1.797813  -0.014530
C  1.302141  1.797813  -0.018832
C  8.830644  3.272000  0.268990
C  15.145562  1.101000  -0.034512
C  0.021251  1.101000  0.025386
C  11.361143  12.029000  0.327932
C  2.546438  9.823667  0.390714
C  11.361143  10.553000  0.458289
C  2.546438  8.371221  0.619466
C  10.098375  9.823667  0.447758
C  16.391568  7.631998  0.300186
C  1.302141  7.631998  0.319976
C  10.098375  8.371221  0.496362
C  16.391568  6.197900  0.285278
C  1.302141  6.197900  0.319773
C  15.145562  5.453610  0.578922
C  0.021251  5.453610  0.155087
C  8.830644  7.631998  0.578796
C  8.830644  6.197900  0.570580
C  15.145562  4.000000  0.329544
C  0.021251  4.000000  0.171208
C  7.582124  5.453610  0.481706
C  13.876357  3.272000  0.358387
C  -1.214289  3.272000  0.225466
C  7.582124  4.000000  0.389238
C  13.876357  1.797813  0.124504
C  -1.214289  1.797813  0.165093
C  10.098375  12.724286  0.292361
C  1.302141  10.553000  0.136947
C  8.830644  12.029000  0.363445
C  15.145562  9.823667  0.367757
C  0.021251  9.823667  0.195121
C  8.830644  10.553000  0.356194
C  15.145562  8.371221  0.593459
C  0.021251  8.371221  0.160142
C  7.582124  9.823667  0.467941
C  13.876357  7.631998  0.929029
C  -1.214289  7.631998  0.076711
C  7.582124  8.371221  0.506413
C  13.876357  6.197900  0.920419
C  -1.214289  6.197900  0.072327
C  6.330357  7.631998  0.692039
C  12.623562  5.453610  0.771273
C  -2.463372  5.453610  0.125264
C  6.330357  6.197900  0.669870
C  12.623562  4.000000  0.550322
C  -2.463372  4.000000  0.171447
C  7.582124  12.724286  0.306497
C  13.876357  10.553000  0.421365
C  -1.214289  10.553000  0.225698
C  6.330357  12.029000  0.362961
C  12.623562  9.823667  0.614011
C  -2.463372  9.823667  0.166250
C  6.330357  10.553000  0.478382
C  12.623562  8.371221  0.797172
C  -2.463372  8.371221  0.108499
C  5.067250  9.823667  0.639804
C  -3.721000  7.631998  0.072548
C  5.067250  8.371221  0.821210
C  -3.721000  6.197900  0.084909
C  5.067250  12.724286  0.214497
C  3.815571  12.029000  0.241324
C  3.815571  10.553000  0.458691
C  2.546438  12.724286  0.034641
C  1.302141  12.029000  0.029458
C  6.330357  3.272000  0.398023
C  15.145562  12.724286  0.024791
C  0.021251  12.724286  0.070615
C  13.876357  12.029000  0.184997
C  -1.214289  12.029000  0.182869
C  12.623562  12.724286  0.178392
C  6.330357  1.797813  0.246612
C  8.830644  1.797813  0.244236
C  11.361143  1.797813  0.235260
C  10.098375  1.101000  0.154873
C  7.582124  1.101000  0.174043
C  5.067250  1.101000  0.105879
C  12.623562  1.101000  0.095686
