142
frame	728
H  17.693000  13.826000  0.000000
H  19.858000  12.564000  0.000000
H  21.106000  10.363000  0.000000
H  22.366000  5.656000  0.000000
H  22.367000  8.165000  0.000000
H  19.852000  1.261000  0.000000
H  17.690000  -0.000000  0.000000
H  21.104000  3.459000  0.000000
H  2.530000  -0.005000  0.000000
H  15.160000  -0.002000  0.000000
H  0.000000  -0.000000  0.000000
H  -2.163000  1.262000  0.000000
H  -3.415000  3.463000  0.000000
H  -4.677000  8.168000  0.000000
H  -4.678000  5.662000  0.000000
H  -2.159000  12.565000  0.000000
H  10.109000  13.837000  0.000000
H  7.585000  13.838000  0.000000
H  5.062000  13.833000  0.000000
H  2.535000  13.828000  0.000000
H  15.163000  13.830000  0.000000
H  0.007000  13.825000  0.000000
H  -3.412000  10.366000  0.000000
H  12.635000  13.835000  0.000000
H  10.108000  -0.010000  0.000000
H  7.583000  -0.012000  0.000000
H  5.058000  -0.011000  0.000000
H  12.631000  -0.009000  0.000000
C  16.391568  10.553000  0.442725
C  16.391568  12.029000  0.275779
C  17.670751  12.724286  0.254281
C  17.670751  8.371221  0.565926
C  17.670751  9.823667  0.557415
C  18.905140  10.553000  0.567145
C  18.905140  12.029000  0.354968
C  17.670751  4.000000  0.559531
C  17.670751  5.453610  0.565349
C  18.905140  6.197900  0.668074
C  18.905140  7.631998  0.658216
C  20.154752  8.371221  0.565544
C  20.154752  9.823667  0.479187
C  18.905140  3.272000  0.579634
C  20.154752  4.000000  0.499523
C  20.154752  5.453610  0.565737
C  21.411000  6.197900  0.321901
C  21.411000  7.631998  0.328806
C  17.670751  1.101000  0.251295
C  18.905140  1.797813  0.359870
C  5.067250  5.453610  0.167476
C  5.067250  4.000000  0.134353
C  3.815571  3.272000  0.243682
C  3.815571  1.797813  0.151138
C  11.361143  3.272000  0.082859
C  2.546438  1.101000  0.162005
C  3.815571  7.631998  0.235254
C  3.815571  6.197900  0.207278
C  11.361143  7.631998  0.173474
C  2.546438  5.453610  0.329069
C  11.361143  6.197900  0.141170
C  2.546438  4.000000  0.338755
C  10.098375  5.453610  0.220212
C  16.391568  3.272000  0.429715
C  1.302141  3.272000  0.436563
C  10.098375  4.000000  0.064489
C  16.391568  1.797813  0.266658
C  1.302141  1.797813  0.270432
C  8.830644  3.272000  0.104209
C  15.145562  1.101000  0.162425
C  0.021251  1.101000  0.254954
C  11.361143  12.029000  0.110703
C  2.546438  9.823667  0.395671
C  11.361143  10.553000  0.134041
C  2.546438  8.371221  0.359036
C  10.098375  9.823667  0.130837
C  16.391568  7.631998  0.434904
C  1.302141  7.631998  0.438476
C  10.098375  8.371221  0.263449
C  16.391568  6.197900  0.427945
C  1.302141  6.197900  0.436546
C  15.145562  5.453610  0.310497
C  0.021251  5.453610  0.541699
C  8.830644  7.631998  0.331036
C  8.830644  6.197900  0.312351
C  15.145562  4.000000  0.327715
C  0.021251  4.000000  0.549316
C  7.582124  5.453610  0.215782
C  13.876357  3.272000  0.205953
C  -1.214289  3.272000  0.545291
C  7.582124  4.000000  0.077120
C  13.876357  1.797813  0.125366
C  -1.214289  1.797813  0.341362
C  10.098375  12.724286  0.156559
C  1.302141  10.553000  0.474294
C  8.830644  12.029000  0.203590
C  15.145562  9.823667  0.356476
C  0.021251  9.823667  0.570680
C  8.830644  10.553000  0.189631
C  15.145562  8.371221  0.330429
C  0.021251  8.371221  0.551257
C  7.582124  9.823667  0.163746
C  13.876357  7.631998  0.184892
C  -1.214289  7.631998  0.607412
C  7.582124  8.371221  0.258332
C  13.876357  6.197900  0.163921
C  -1.214289  6.197900  0.610160
C  6.330357  7.631998  0.212988
C  12.623562  5.453610  0.127961
C  -2.463372  5.453610  0.479682
C  6.330357  6.197900  0.173610
C  12.623562  4.000000  0.099005
C  -2.463372  4.000000  0.440125
C  7.582124  12.724286  0.174572
C  13.876357  10.553000  0.238609
C  -1.214289  10.553000  0.559555
C  6.330357  12.029000  0.137442
C  12.623562  9.823667  0.150592
C  -2.463372  9.823667  0.430855
C  6.330357  10.553000  0.183375
C  12.623562  8.371221  0.167721
C  -2.463372  8.371221  0.487466
C  5.067250  9.823667  0.198523
C  -3.721000  7.631998  0.203305
C  5.067250  8.371221  0.217094
C  -3.721000  6.197900  0.214346
C  5.067250  12.724286  0.143906
C  3.815571  12.029000  0.246774
C  3.815571  10.553000  0.304725
C  2.546438  12.724286  0.240813
C  1.302141  12.029000  0.313559
C  6.330357  3.272000  0.080232
C  15.145562  12.724286  0.181210
C  0.021251  12.724286  0.291031
C  13.876357  12.029000  0.165084
C  -1.214289  12.029000  0.339536
C  12.623562  12.724286  0.092946
C  6.330357  1.797813  0.006344
C  8.830644  1.797813  0.082377
C  11.361143  1.797813  -0.000424
C  10.098375  1.101000  0.026424
C  7.582124  1.101000  0.017295
C  5.067250  1.101000  0.024887
C  12.623562  1.101000  -0.004864
