142
frame	596
H  17.693000  13.826000  0.000000
H  19.858000  12.564000  0.000000
H  21.106000  10.363000  0.000000
H  22.366000  5.656000  0.000000
H  22.367000  8.165000  0.000000
H  19.852000  1.261000  0.000000
H  17.690000  -0.000000  0.000000
H  21.104000  3.459000  0.000000
H  2.530000  -0.005000  0.000000
H  15.160000  -0.002000  0.000000
H  0.000000  -0.000000  0.000000
H  -2.163000  1.262000  0.000000
H  -3.415000  3.463000  0.000000
H  -4.677000  8.168000  0.000000
H  -4.678000  5.662000  0.000000
H  -2.159000  12.565000  0.000000
H  10.109000  13.837000  0.000000
H  7.585000  13.838000  0.000000
H  5.062000  13.833000  0.000000
H  2.535000  13.828000  0.000000
H  15.163000  13.830000  0.000000
H  0.007000  13.825000  0.000000
H  -3.412000  10.366000  0.000000
H  12.635000  13.835000  0.000000
H  10.108000  -0.010000  0.000000
H  7.583000  -0.012000  0.000000
H  5.058000  -0.011000  0.000000
H  12.631000  -0.009000  0.000000
C  16.391568  10.553000  0.116468
C  16.391568  12.029000  0.029060
C  17.670751  12.724286  0.112551
C  17.670751  8.371221  0.192204
C  17.670751  9.823667  0.048237
C  18.905140  10.553000  0.007666
C  18.905140  12.029000  0.039533
C  17.670751  4.000000  0.042292
C  17.670751  5.453610  0.179876
C  18.905140  6.197900  0.239739
C  18.905140  7.631998  0.260327
C  20.154752  8.371221  0.115897
C  20.154752  9.823667  0.004480
C  18.905140  3.272000  0.026876
C  20.154752  4.000000  0.022917
C  20.154752  5.453610  0.116915
C  21.411000  6.197900  0.119611
C  21.411000  7.631998  0.118612
C  17.670751  1.101000  0.100314
C  18.905140  1.797813  0.054845
C  5.067250  5.453610  0.096978
C  5.067250  4.000000  -0.042486
C  3.815571  3.272000  0.027852
C  3.815571  1.797813  -0.141699
C  11.361143  3.272000  -0.147914
C  2.546438  1.101000  -0.103355
C  3.815571  7.631998  0.263905
C  3.815571  6.197900  0.253969
C  11.361143  7.631998  0.019061
C  2.546438  5.453610  0.227250
C  11.361143  6.197900  0.017766
C  2.546438  4.000000  0.189491
C  10.098375  5.453610  -0.355970
C  16.391568  3.272000  0.110095
C  1.302141  3.272000  0.092829
C  10.098375  4.000000  -0.239225
C  16.391568  1.797813  0.026823
C  1.302141  1.797813  0.005941
C  8.830644  3.272000  -0.384532
C  15.145562  1.101000  -0.094548
C  0.021251  1.101000  0.110908
C  11.361143  12.029000  -0.065583
C  2.546438  9.823667  0.219593
C  11.361143  10.553000  -0.093901
C  2.546438  8.371221  0.234718
C  10.098375  9.823667  -0.188331
C  16.391568  7.631998  0.217446
C  1.302141  7.631998  0.198894
C  10.098375  8.371221  -0.341364
C  16.391568  6.197900  0.211055
C  1.302141  6.197900  0.183729
C  15.145562  5.453610  0.228601
C  0.021251  5.453610  0.149122
C  8.830644  7.631998  -0.650784
C  8.830644  6.197900  -0.668973
C  15.145562  4.000000  0.198943
C  0.021251  4.000000  0.011256
C  7.582124  5.453610  -0.338226
C  13.876357  3.272000  0.032106
C  -1.214289  3.272000  -0.021484
C  7.582124  4.000000  -0.236178
C  13.876357  1.797813  -0.130687
C  -1.214289  1.797813  0.021801
C  10.098375  12.724286  -0.161957
C  1.302141  10.553000  0.119367
C  8.830644  12.029000  -0.262294
C  15.145562  9.823667  0.219989
C  0.021251  9.823667  0.025177
C  8.830644  10.553000  -0.313347
C  15.145562  8.371221  0.235647
C  0.021251  8.371221  0.158758
C  7.582124  9.823667  -0.187306
C  13.876357  7.631998  0.248577
C  -1.214289  7.631998  0.210785
C  7.582124  8.371221  -0.311193
C  13.876357  6.197900  0.240453
C  -1.214289  6.197900  0.217249
C  6.330357  7.631998  0.035153
C  12.623562  5.453610  0.089685
C  -2.463372  5.453610  0.064619
C  6.330357  6.197900  0.016937
C  12.623562  4.000000  -0.053293
C  -2.463372  4.000000  -0.021272
C  7.582124  12.724286  -0.129421
C  13.876357  10.553000  0.070568
C  -1.214289  10.553000  -0.009545
C  6.330357  12.029000  -0.036337
C  12.623562  9.823667  -0.010671
C  -2.463372  9.823667  -0.028294
C  6.330357  10.553000  -0.093176
C  12.623562  8.371221  0.106838
C  -2.463372  8.371221  0.064489
C  5.067250  9.823667  0.011216
C  -3.721000  7.631998  0.030433
C  5.067250  8.371221  0.115376
C  -3.721000  6.197900  0.038676
C  5.067250  12.724286  -0.007090
C  3.815571  12.029000  -0.070917
C  3.815571  10.553000  0.075387
C  2.546438  12.724286  -0.037405
C  1.302141  12.029000  0.049042
C  6.330357  3.272000  -0.154384
C  15.145562  12.724286  -0.065880
C  0.021251  12.724286  0.138794
C  13.876357  12.029000  -0.082143
C  -1.214289  12.029000  0.045333
C  12.623562  12.724286  -0.038566
C  6.330357  1.797813  -0.129157
C  8.830644  1.797813  -0.365096
C  11.361143  1.797813  -0.141625
C  10.098375  1.101000  -0.266566
C  7.582124  1.101000  -0.260952
C  5.067250  1.101000  -0.113054
C  12.623562  1.101000  -0.119837
