142
frame	418
H  17.693000  13.826000  0.000000
H  19.858000  12.564000  0.000000
H  21.106000  10.363000  0.000000
H  22.366000  5.656000  0.000000
H  22.367000  8.165000  0.000000
H  19.852000  1.261000  0.000000
H  17.690000  -0.000000  0.000000
H  21.104000  3.459000  0.000000
H  2.530000  -0.005000  0.000000
H  15.160000  -0.002000  0.000000
H  0.000000  -0.000000  0.000000
H  -2.163000  1.262000  0.000000
H  -3.415000  3.463000  0.000000
H  -4.677000  8.168000  0.000000
H  -4.678000  5.662000  0.000000
H  -2.159000  12.565000  0.000000
H  10.109000  13.837000  0.000000
H  7.585000  13.838000  0.000000
H  5.062000  13.833000  0.000000
H  2.535000  13.828000  0.000000
H  15.163000  13.830000  0.000000
H  0.007000  13.825000  0.000000
H  -3.412000  10.366000  0.000000
H  12.635000  13.835000  0.000000
H  10.108000  -0.010000  0.000000
H  7.583000  -0.012000  0.000000
H  5.058000  -0.011000  0.000000
H  12.631000  -0.009000  0.000000
C  16.391568  10.553000  -0.571936
C  16.391568  12.029000  -0.298396
C  17.670751  12.724286  -0.121085
C  17.670751  8.371221  -0.409286
C  17.670751  9.823667  -0.446769
C  18.905140  10.553000  -0.296399
C  18.905140  12.029000  -0.165465
C  17.670751  4.000000  -0.441029
C  17.670751  5.453610  -0.389807
C  18.905140  6.197900  -0.244950
C  18.905140  7.631998  -0.253833
C  20.154752  8.371221  -0.071250
C  20.154752  9.823667  -0.116768
C  18.905140  3.272000  -0.304218
C  20.154752  4.000000  -0.105181
C  20.154752  5.453610  -0.052888
C  21.411000  6.197900  0.191952
C  21.411000  7.631998  0.190742
C  17.670751  1.101000  -0.126130
C  18.905140  1.797813  -0.148686
C  5.067250  5.453610  -0.312253
C  5.067250  4.000000  -0.228781
C  3.815571  3.272000  -0.508409
C  3.815571  1.797813  -0.465401
C  11.361143  3.272000  -0.182539
C  2.546438  1.101000  -0.286839
C  3.815571  7.631998  -0.472209
C  3.815571  6.197900  -0.484465
C  11.361143  7.631998  -0.345928
C  2.546438  5.453610  -0.747813
C  11.361143  6.197900  -0.370202
C  2.546438  4.000000  -0.725501
C  10.098375  5.453610  -0.372368
C  16.391568  3.272000  -0.604153
C  1.302141  3.272000  -0.633570
C  10.098375  4.000000  -0.241048
C  16.391568  1.797813  -0.333135
C  1.302141  1.797813  -0.356109
C  8.830644  3.272000  -0.231605
C  15.145562  1.101000  -0.281178
C  0.021251  1.101000  -0.148098
C  11.361143  12.029000  -0.150676
C  2.546438  9.823667  -0.697787
C  11.361143  10.553000  -0.103529
C  2.546438  8.371221  -0.732163
C  10.098375  9.823667  -0.177341
C  16.391568  7.631998  -0.541264
C  1.302141  7.631998  -0.595972
C  10.098375  8.371221  -0.327559
C  16.391568  6.197900  -0.544266
C  1.302141  6.197900  -0.600074
C  15.145562  5.453610  -0.697421
C  0.021251  5.453610  -0.464693
C  8.830644  7.631998  -0.338251
C  8.830644  6.197900  -0.360608
C  15.145562  4.000000  -0.667606
C  0.021251  4.000000  -0.492507
C  7.582124  5.453610  -0.361964
C  13.876357  3.272000  -0.477143
C  -1.214289  3.272000  -0.349799
C  7.582124  4.000000  -0.230251
C  13.876357  1.797813  -0.469443
C  -1.214289  1.797813  -0.199660
C  10.098375  12.724286  0.090574
C  1.302141  10.553000  -0.605259
C  8.830644  12.029000  0.055538
C  15.145562  9.823667  -0.654099
C  0.021251  9.823667  -0.474978
C  8.830644  10.553000  -0.151032
C  15.145562  8.371221  -0.671653
C  0.021251  8.371221  -0.469516
C  7.582124  9.823667  -0.168164
C  13.876357  7.631998  -0.428071
C  -1.214289  7.631998  -0.338048
C  7.582124  8.371221  -0.320282
C  13.876357  6.197900  -0.439160
C  -1.214289  6.197900  -0.328190
C  6.330357  7.631998  -0.358257
C  12.623562  5.453610  -0.289662
C  -2.463372  5.453610  -0.162045
C  6.330357  6.197900  -0.374398
C  12.623562  4.000000  -0.211941
C  -2.463372  4.000000  -0.180451
C  7.582124  12.724286  0.089039
C  13.876357  10.553000  -0.447837
C  -1.214289  10.553000  -0.352182
C  6.330357  12.029000  -0.139487
C  12.623562  9.823667  -0.171366
C  -2.463372  9.823667  -0.185563
C  6.330357  10.553000  -0.101809
C  12.623562  8.371221  -0.254848
C  -2.463372  8.371221  -0.173035
C  5.067250  9.823667  -0.186272
C  -3.721000  7.631998  0.076024
C  5.067250  8.371221  -0.279844
C  -3.721000  6.197900  0.076311
C  5.067250  12.724286  -0.281056
C  3.815571  12.029000  -0.395128
C  3.815571  10.553000  -0.446105
C  2.546438  12.724286  -0.215859
C  1.302141  12.029000  -0.307317
C  6.330357  3.272000  -0.181510
C  15.145562  12.724286  -0.227555
C  0.021251  12.724286  -0.116004
C  13.876357  12.029000  -0.410543
C  -1.214289  12.029000  -0.192222
C  12.623562  12.724286  -0.316408
C  6.330357  1.797813  -0.256892
C  8.830644  1.797813  -0.064409
C  11.361143  1.797813  -0.262324
C  10.098375  1.101000  -0.061848
C  7.582124  1.101000  -0.049065
C  5.067250  1.101000  -0.411383
C  12.623562  1.101000  -0.415040
