142
frame	173
H  17.693000  13.826000  0.000000
H  19.858000  12.564000  0.000000
H  21.106000  10.363000  0.000000
H  22.366000  5.656000  0.000000
H  22.367000  8.165000  0.000000
H  19.852000  1.261000  0.000000
H  17.690000  -0.000000  0.000000
H  21.104000  3.459000  0.000000
H  2.530000  -0.005000  0.000000
H  15.160000  -0.002000  0.000000
H  0.000000  -0.000000  0.000000
H  -2.163000  1.262000  0.000000
H  -3.415000  3.463000  0.000000
H  -4.677000  8.168000  0.000000
H  -4.678000  5.662000  0.000000
H  -2.159000  12.565000  0.000000
H  10.109000  13.837000  0.000000
H  7.585000  13.838000  0.000000
H  5.062000  13.833000  0.000000
H  2.535000  13.828000  0.000000
H  15.163000  13.830000  0.000000
H  0.007000  13.825000  0.000000
H  -3.412000  10.366000  0.000000
H  12.635000  13.835000  0.000000
H  10.108000  -0.010000  0.000000
H  7.583000  -0.012000  0.000000
H  5.058000  -0.011000  0.000000
H  12.631000  -0.009000  0.000000
C  16.391568  10.553000  -0.002643
C  16.391568  12.029000  0.004547
C  17.670751  12.724286  0.192046
C  17.670751  8.371221  -0.000329
C  17.670751  9.823667  0.136338
C  18.905140  10.553000  0.429322
C  18.905140  12.029000  0.392323
C  17.670751  4.000000  0.142672
C  17.670751  5.453610  0.014135
C  18.905140  6.197900  0.183840
C  18.905140  7.631998  0.189931
C  20.154752  8.371221  0.329794
C  20.154752  9.823667  0.384057
C  18.905140  3.272000  0.441683
C  20.154752  4.000000  0.405098
C  20.154752  5.453610  0.330235
C  21.411000  6.197900  0.281357
C  21.411000  7.631998  0.271446
C  17.670751  1.101000  0.183511
C  18.905140  1.797813  0.389417
C  5.067250  5.453610  -0.454316
C  5.067250  4.000000  -0.565854
C  3.815571  3.272000  -0.374567
C  3.815571  1.797813  -0.330890
C  11.361143  3.272000  -0.710788
C  2.546438  1.101000  -0.232597
C  3.815571  7.631998  -0.348300
C  3.815571  6.197900  -0.349380
C  11.361143  7.631998  -0.391553
C  2.546438  5.453610  -0.111899
C  11.361143  6.197900  -0.418007
C  2.546438  4.000000  -0.121829
C  10.098375  5.453610  -0.618468
C  16.391568  3.272000  -0.011654
C  1.302141  3.272000  -0.027333
C  10.098375  4.000000  -0.768040
C  16.391568  1.797813  -0.017378
C  1.302141  1.797813  -0.020681
C  8.830644  3.272000  -0.728527
C  15.145562  1.101000  -0.224369
C  0.021251  1.101000  0.186113
C  11.361143  12.029000  -0.317294
C  2.546438  9.823667  -0.081624
C  11.361143  10.553000  -0.653625
C  2.546438  8.371221  -0.108759
C  10.098375  9.823667  -0.714972
C  16.391568  7.631998  -0.058816
C  1.302141  7.631998  -0.046538
C  10.098375  8.371221  -0.576777
C  16.391568  6.197900  -0.046820
C  1.302141  6.197900  -0.059694
C  15.145562  5.453610  -0.127569
C  0.021251  5.453610  -0.020525
C  8.830644  7.631998  -0.610194
C  8.830644  6.197900  -0.642397
C  15.145562  4.000000  -0.120638
C  0.021251  4.000000  0.121963
C  7.582124  5.453610  -0.610772
C  13.876357  3.272000  -0.382163
C  -1.214289  3.272000  0.423218
C  7.582124  4.000000  -0.761501
C  13.876357  1.797813  -0.334646
C  -1.214289  1.797813  0.380206
C  10.098375  12.724286  -0.216103
C  1.302141  10.553000  0.005690
C  8.830644  12.029000  -0.298540
C  15.145562  9.823667  -0.099377
C  0.021251  9.823667  0.132568
C  8.830644  10.553000  -0.657565
C  15.145562  8.371221  -0.109535
C  0.021251  8.371221  -0.005373
C  7.582124  9.823667  -0.707027
C  13.876357  7.631998  -0.361616
C  -1.214289  7.631998  0.144298
C  7.582124  8.371221  -0.574750
C  13.876357  6.197900  -0.363569
C  -1.214289  6.197900  0.145257
C  6.330357  7.631998  -0.394929
C  12.623562  5.453610  -0.465536
C  -2.463372  5.453610  0.274507
C  6.330357  6.197900  -0.401611
C  12.623562  4.000000  -0.565207
C  -2.463372  4.000000  0.353336
C  7.582124  12.724286  -0.197826
C  13.876357  10.553000  -0.322787
C  -1.214289  10.553000  0.422643
C  6.330357  12.029000  -0.297713
C  12.623562  9.823667  -0.524428
C  -2.463372  9.823667  0.342830
C  6.330357  10.553000  -0.630226
C  12.623562  8.371221  -0.444547
C  -2.463372  8.371221  0.264567
C  5.067250  9.823667  -0.508925
C  -3.721000  7.631998  0.175747
C  5.067250  8.371221  -0.423438
C  -3.721000  6.197900  0.179126
C  5.067250  12.724286  -0.149772
C  3.815571  12.029000  -0.241973
C  3.815571  10.553000  -0.316604
C  2.546438  12.724286  -0.148965
C  1.302141  12.029000  0.033436
C  6.330357  3.272000  -0.715786
C  15.145562  12.724286  -0.185921
C  0.021251  12.724286  0.211794
C  13.876357  12.029000  -0.284828
C  -1.214289  12.029000  0.374920
C  12.623562  12.724286  -0.188260
C  6.330357  1.797813  -0.409099
C  8.830644  1.797813  -0.413824
C  11.361143  1.797813  -0.409883
C  10.098375  1.101000  -0.349526
C  7.582124  1.101000  -0.335370
C  5.067250  1.101000  -0.263293
C  12.623562  1.101000  -0.275566
