142
frame	507
H  17.693000  13.826000  0.000000
H  19.858000  12.564000  0.000000
H  21.106000  10.363000  0.000000
H  22.366000  5.656000  0.000000
H  22.367000  8.165000  0.000000
H  19.852000  1.261000  0.000000
H  17.690000  -0.000000  0.000000
H  21.104000  3.459000  0.000000
H  2.530000  -0.005000  0.000000
H  15.160000  -0.002000  0.000000
H  0.000000  -0.000000  0.000000
H  -2.163000  1.262000  0.000000
H  -3.415000  3.463000  0.000000
H  -4.677000  8.168000  0.000000
H  -4.678000  5.662000  0.000000
H  -2.159000  12.565000  0.000000
H  10.109000  13.837000  0.000000
H  7.585000  13.838000  0.000000
H  5.062000  13.833000  0.000000
H  2.535000  13.828000  0.000000
H  15.163000  13.830000  0.000000
H  0.007000  13.825000  0.000000
H  -3.412000  10.366000  0.000000
H  12.635000  13.835000  0.000000
H  10.108000  -0.010000  0.000000
H  7.583000  -0.012000  0.000000
H  5.058000  -0.011000  0.000000
H  12.631000  -0.009000  0.000000
C  16.391568  10.553000  -0.032177
C  16.391568  12.029000  0.064860
C  17.670751  12.724286  0.044086
C  17.670751  8.371221  -0.099559
C  17.670751  9.823667  -0.110808
C  18.905140  10.553000  -0.154830
C  18.905140  12.029000  -0.075918
C  17.670751  4.000000  -0.111005
C  17.670751  5.453610  -0.093653
C  18.905140  6.197900  -0.007358
C  18.905140  7.631998  -0.004220
C  20.154752  8.371221  -0.038684
C  20.154752  9.823667  -0.123908
C  18.905140  3.272000  -0.141444
C  20.154752  4.000000  -0.110529
C  20.154752  5.453610  -0.021795
C  21.411000  6.197900  0.065541
C  21.411000  7.631998  0.068453
C  17.670751  1.101000  0.028632
C  18.905140  1.797813  -0.069907
C  5.067250  5.453610  -0.488020
C  5.067250  4.000000  -0.198749
C  3.815571  3.272000  -0.247471
C  3.815571  1.797813  -0.109543
C  11.361143  3.272000  -0.136828
C  2.546438  1.101000  0.028663
C  3.815571  7.631998  -0.647138
C  3.815571  6.197900  -0.672354
C  11.361143  7.631998  -0.321653
C  2.546438  5.453610  -0.508600
C  11.361143  6.197900  -0.332902
C  2.546438  4.000000  -0.253193
C  10.098375  5.453610  -0.131600
C  16.391568  3.272000  -0.059614
C  1.302141  3.272000  -0.050616
C  10.098375  4.000000  -0.081804
C  16.391568  1.797813  0.048339
C  1.302141  1.797813  0.033216
C  8.830644  3.272000  -0.171614
C  15.145562  1.101000  0.012484
C  0.021251  1.101000  0.036286
C  11.361143  12.029000  -0.072782
C  2.546438  9.823667  -0.223477
C  11.361143  10.553000  -0.068733
C  2.546438  8.371221  -0.487988
C  10.098375  9.823667  -0.047977
C  16.391568  7.631998  -0.269344
C  1.302141  7.631998  -0.297630
C  10.098375  8.371221  -0.109235
C  16.391568  6.197900  -0.281780
C  1.302141  6.197900  -0.302008
C  15.145562  5.453610  -0.491732
C  0.021251  5.453610  -0.142327
C  8.830644  7.631998  0.024615
C  8.830644  6.197900  0.025322
C  15.145562  4.000000  -0.244524
C  0.021251  4.000000  -0.145063
C  7.582124  5.453610  -0.149329
C  13.876357  3.272000  -0.229643
C  -1.214289  3.272000  -0.197274
C  7.582124  4.000000  -0.101510
C  13.876357  1.797813  -0.115631
C  -1.214289  1.797813  -0.083047
C  10.098375  12.724286  -0.067450
C  1.302141  10.553000  -0.033966
C  8.830644  12.029000  -0.043769
C  15.145562  9.823667  -0.221741
C  0.021251  9.823667  -0.136826
C  8.830644  10.553000  -0.106878
C  15.145562  8.371221  -0.473919
C  0.021251  8.371221  -0.145743
C  7.582124  9.823667  -0.058674
C  13.876357  7.631998  -0.631041
C  -1.214289  7.631998  -0.084690
C  7.582124  8.371221  -0.140691
C  13.876357  6.197900  -0.635259
C  -1.214289  6.197900  -0.077608
C  6.330357  7.631998  -0.357026
C  12.623562  5.453610  -0.460050
C  -2.463372  5.453610  -0.115049
C  6.330357  6.197900  -0.357316
C  12.623562  4.000000  -0.178314
C  -2.463372  4.000000  -0.178208
C  7.582124  12.724286  -0.065629
C  13.876357  10.553000  -0.190531
C  -1.214289  10.553000  -0.195510
C  6.330357  12.029000  -0.057690
C  12.623562  9.823667  -0.144272
C  -2.463372  9.823667  -0.183609
C  6.330357  10.553000  -0.077471
C  12.623562  8.371221  -0.427767
C  -2.463372  8.371221  -0.123088
C  5.067250  9.823667  -0.165787
C  -3.721000  7.631998  -0.055121
C  5.067250  8.371221  -0.459804
C  -3.721000  6.197900  -0.044979
C  5.067250  12.724286  -0.000008
C  3.815571  12.029000  -0.039677
C  3.815571  10.553000  -0.198748
C  2.546438  12.724286  0.100546
C  1.302141  12.029000  0.067933
C  6.330357  3.272000  -0.147476
C  15.145562  12.724286  0.053704
C  0.021251  12.724286  0.041340
C  13.876357  12.029000  -0.061744
C  -1.214289  12.029000  -0.082308
C  12.623562  12.724286  -0.027088
C  6.330357  1.797813  -0.170250
C  8.830644  1.797813  -0.145093
C  11.361143  1.797813  -0.172503
C  10.098375  1.101000  -0.204263
C  7.582124  1.101000  -0.206532
C  5.067250  1.101000  -0.122014
C  12.623562  1.101000  -0.120440
