142
frame	697
H  17.693000  13.826000  0.000000
H  19.858000  12.564000  0.000000
H  21.106000  10.363000  0.000000
H  22.366000  5.656000  0.000000
H  22.367000  8.165000  0.000000
H  19.852000  1.261000  0.000000
H  17.690000  -0.000000  0.000000
H  21.104000  3.459000  0.000000
H  2.530000  -0.005000  0.000000
H  15.160000  -0.002000  0.000000
H  0.000000  -0.000000  0.000000
H  -2.163000  1.262000  0.000000
H  -3.415000  3.463000  0.000000
H  -4.677000  8.168000  0.000000
H  -4.678000  5.662000  0.000000
H  -2.159000  12.565000  0.000000
H  10.109000  13.837000  0.000000
H  7.585000  13.838000  0.000000
H  5.062000  13.833000  0.000000
H  2.535000  13.828000  0.000000
H  15.163000  13.830000  0.000000
H  0.007000  13.825000  0.000000
H  -3.412000  10.366000  0.000000
H  12.635000  13.835000  0.000000
H  10.108000  -0.010000  0.000000
H  7.583000  -0.012000  0.000000
H  5.058000  -0.011000  0.000000
H  12.631000  -0.009000  0.000000
C  16.391568  10.553000  0.490967
C  16.391568  12.029000  0.438265
C  17.670751  12.724286  0.265046
C  17.670751  8.371221  0.610920
C  17.670751  9.823667  0.678404
C  18.905140  10.553000  0.519805
C  18.905140  12.029000  0.251608
C  17.670751  4.000000  0.674573
C  17.670751  5.453610  0.607164
C  18.905140  6.197900  0.594402
C  18.905140  7.631998  0.578331
C  20.154752  8.371221  0.526686
C  20.154752  9.823667  0.384874
C  18.905140  3.272000  0.526315
C  20.154752  4.000000  0.395421
C  20.154752  5.453610  0.537307
C  21.411000  6.197900  0.539756
C  21.411000  7.631998  0.523402
C  17.670751  1.101000  0.276441
C  18.905140  1.797813  0.270738
C  5.067250  5.453610  0.246557
C  5.067250  4.000000  0.150649
C  3.815571  3.272000  0.059015
C  3.815571  1.797813  -0.029553
C  11.361143  3.272000  0.113331
C  2.546438  1.101000  0.122052
C  3.815571  7.631998  0.221486
C  3.815571  6.197900  0.220528
C  11.361143  7.631998  0.149457
C  2.546438  5.453610  0.155704
C  11.361143  6.197900  0.140599
C  2.546438  4.000000  0.211731
C  10.098375  5.453610  -0.041882
C  16.391568  3.272000  0.496638
C  1.302141  3.272000  0.495402
C  10.098375  4.000000  0.062716
C  16.391568  1.797813  0.423552
C  1.302141  1.797813  0.425182
C  8.830644  3.272000  0.078322
C  15.145562  1.101000  0.108749
C  0.021251  1.101000  0.257947
C  11.361143  12.029000  0.039549
C  2.546438  9.823667  0.236322
C  11.361143  10.553000  0.193541
C  2.546438  8.371221  0.172142
C  10.098375  9.823667  0.130133
C  16.391568  7.631998  0.366109
C  1.302141  7.631998  0.384124
C  10.098375  8.371221  -0.013851
C  16.391568  6.197900  0.383980
C  1.302141  6.197900  0.376127
C  15.145562  5.453610  0.119782
C  0.021251  5.453610  0.580567
C  8.830644  7.631998  -0.191661
C  8.830644  6.197900  -0.211494
C  15.145562  4.000000  0.180756
C  0.021251  4.000000  0.661309
C  7.582124  5.453610  -0.033878
C  13.876357  3.272000  0.051383
C  -1.214289  3.272000  0.499548
C  7.582124  4.000000  0.054709
C  13.876357  1.797813  -0.042126
C  -1.214289  1.797813  0.259367
C  10.098375  12.724286  0.072056
C  1.302141  10.553000  0.543613
C  8.830644  12.029000  0.081465
C  15.145562  9.823667  0.194116
C  0.021251  9.823667  0.670712
C  8.830644  10.553000  0.168525
C  15.145562  8.371221  0.127119
C  0.021251  8.371221  0.583002
C  7.582124  9.823667  0.140861
C  13.876357  7.631998  0.177406
C  -1.214289  7.631998  0.518768
C  7.582124  8.371221  0.017055
C  13.876357  6.197900  0.173633
C  -1.214289  6.197900  0.527817
C  6.330357  7.631998  0.155458
C  12.623562  5.453610  0.230587
C  -2.463372  5.453610  0.441412
C  6.330357  6.197900  0.149507
C  12.623562  4.000000  0.136075
C  -2.463372  4.000000  0.326523
C  7.582124  12.724286  0.102368
C  13.876357  10.553000  0.088711
C  -1.214289  10.553000  0.491895
C  6.330357  12.029000  0.112921
C  12.623562  9.823667  0.178296
C  -2.463372  9.823667  0.314746
C  6.330357  10.553000  0.237781
C  12.623562  8.371221  0.239178
C  -2.463372  8.371221  0.429014
C  5.067250  9.823667  0.232614
C  -3.721000  7.631998  0.402538
C  5.067250  8.371221  0.285472
C  -3.721000  6.197900  0.406755
C  5.067250  12.724286  0.044890
C  3.815571  12.029000  0.061831
C  3.815571  10.553000  0.133379
C  2.546438  12.724286  0.206075
C  1.302141  12.029000  0.483115
C  6.330357  3.272000  0.145314
C  15.145562  12.724286  0.155808
C  0.021251  12.724286  0.289727
C  13.876357  12.029000  0.023189
C  -1.214289  12.029000  0.267375
C  12.623562  12.724286  -0.013320
C  6.330357  1.797813  -0.011756
C  8.830644  1.797813  -0.043773
C  11.361143  1.797813  -0.047931
C  10.098375  1.101000  -0.058474
C  7.582124  1.101000  -0.027010
C  5.067250  1.101000  -0.078116
C  12.623562  1.101000  -0.098031
