142
frame	376
H  17.693000  13.826000  0.000000
H  19.858000  12.564000  0.000000
H  21.106000  10.363000  0.000000
H  22.366000  5.656000  0.000000
H  22.367000  8.165000  0.000000
H  19.852000  1.261000  0.000000
H  17.690000  -0.000000  0.000000
H  21.104000  3.459000  0.000000
H  2.530000  -0.005000  0.000000
H  15.160000  -0.002000  0.000000
H  0.000000  -0.000000  0.000000
H  -2.163000  1.262000  0.000000
H  -3.415000  3.463000  0.000000
H  -4.677000  8.168000  0.000000
H  -4.678000  5.662000  0.000000
H  -2.159000  12.565000  0.000000
H  10.109000  13.837000  0.000000
H  7.585000  13.838000  0.000000
H  5.062000  13.833000  0.000000
H  2.535000  13.828000  0.000000
H  15.163000  13.830000  0.000000
H  0.007000  13.825000  0.000000
H  -3.412000  10.366000  0.000000
H  12.635000  13.835000  0.000000
H  10.108000  -0.010000  0.000000
H  7.583000  -0.012000  0.000000
H  5.058000  -0.011000  0.000000
H  12.631000  -0.009000  0.000000
C  16.391568  10.553000  -0.371033
C  16.391568  12.029000  -0.305294
C  17.670751  12.724286  -0.215209
C  17.670751  8.371221  -0.528186
C  17.670751  9.823667  -0.440542
C  18.905140  10.553000  -0.286289
C  18.905140  12.029000  -0.182827
C  17.670751  4.000000  -0.437687
C  17.670751  5.453610  -0.545518
C  18.905140  6.197900  -0.523392
C  18.905140  7.631998  -0.499324
C  20.154752  8.371221  -0.269345
C  20.154752  9.823667  -0.109066
C  18.905140  3.272000  -0.288078
C  20.154752  4.000000  -0.087065
C  20.154752  5.453610  -0.262945
C  21.411000  6.197900  -0.078756
C  21.411000  7.631998  -0.086870
C  17.670751  1.101000  -0.224351
C  18.905140  1.797813  -0.173508
C  5.067250  5.453610  -0.640134
C  5.067250  4.000000  -0.627397
C  3.815571  3.272000  -0.399668
C  3.815571  1.797813  -0.184377
C  11.361143  3.272000  -0.531313
C  2.546438  1.101000  -0.236738
C  3.815571  7.631998  -0.547902
C  3.815571  6.197900  -0.555492
C  11.361143  7.631998  -0.331936
C  2.546438  5.453610  -0.534729
C  11.361143  6.197900  -0.339966
C  2.546438  4.000000  -0.401725
C  10.098375  5.453610  -0.248465
C  16.391568  3.272000  -0.388300
C  1.302141  3.272000  -0.448977
C  10.098375  4.000000  -0.394921
C  16.391568  1.797813  -0.322521
C  1.302141  1.797813  -0.353497
C  8.830644  3.272000  -0.416761
C  15.145562  1.101000  -0.203640
C  0.021251  1.101000  -0.230295
C  11.361143  12.029000  -0.205304
C  2.546438  9.823667  -0.361876
C  11.361143  10.553000  -0.446902
C  2.546438  8.371221  -0.505452
C  10.098375  9.823667  -0.320575
C  16.391568  7.631998  -0.540548
C  1.302141  7.631998  -0.592120
C  10.098375  8.371221  -0.228735
C  16.391568  6.197900  -0.542503
C  1.302141  6.197900  -0.610348
C  15.145562  5.453610  -0.494318
C  0.021251  5.453610  -0.626584
C  8.830644  7.631998  -0.095285
C  8.830644  6.197900  -0.100482
C  15.145562  4.000000  -0.355906
C  0.021251  4.000000  -0.520476
C  7.582124  5.453610  -0.259437
C  13.876357  3.272000  -0.385319
C  -1.214289  3.272000  -0.340826
C  7.582124  4.000000  -0.393869
C  13.876357  1.797813  -0.162185
C  -1.214289  1.797813  -0.217599
C  10.098375  12.724286  -0.217409
C  1.302141  10.553000  -0.417787
C  8.830644  12.029000  -0.412147
C  15.145562  9.823667  -0.332993
C  0.021251  9.823667  -0.496242
C  8.830644  10.553000  -0.312795
C  15.145562  8.371221  -0.485012
C  0.021251  8.371221  -0.617048
C  7.582124  9.823667  -0.324458
C  13.876357  7.631998  -0.526157
C  -1.214289  7.631998  -0.580034
C  7.582124  8.371221  -0.238854
C  13.876357  6.197900  -0.523549
C  -1.214289  6.197900  -0.577173
C  6.330357  7.631998  -0.351023
C  12.623562  5.453610  -0.615978
C  -2.463372  5.453610  -0.362009
C  6.330357  6.197900  -0.359064
C  12.623562  4.000000  -0.622515
C  -2.463372  4.000000  -0.178162
C  7.582124  12.724286  -0.185002
C  13.876357  10.553000  -0.320757
C  -1.214289  10.553000  -0.342705
C  6.330357  12.029000  -0.173069
C  12.623562  9.823667  -0.567199
C  -2.463372  9.823667  -0.178107
C  6.330357  10.553000  -0.441062
C  12.623562  8.371221  -0.601341
C  -2.463372  8.371221  -0.364685
C  5.067250  9.823667  -0.574581
C  -3.721000  7.631998  -0.200599
C  5.067250  8.371221  -0.612594
C  -3.721000  6.197900  -0.200375
C  5.067250  12.724286  0.080174
C  3.815571  12.029000  -0.102973
C  3.815571  10.553000  -0.327149
C  2.546438  12.724286  -0.149487
C  1.302141  12.029000  -0.315019
C  6.330357  3.272000  -0.534585
C  15.145562  12.724286  -0.165714
C  0.021251  12.724286  -0.219127
C  13.876357  12.029000  -0.096700
C  -1.214289  12.029000  -0.211891
C  12.623562  12.724286  0.051053
C  6.330357  1.797813  -0.293035
C  8.830644  1.797813  -0.553232
C  11.361143  1.797813  -0.303239
C  10.098375  1.101000  -0.350920
C  7.582124  1.101000  -0.337240
C  5.067250  1.101000  -0.036978
C  12.623562  1.101000  -0.042162
