142
frame	608
H  17.693000  13.826000  0.000000
H  19.858000  12.564000  0.000000
H  21.106000  10.363000  0.000000
H  22.366000  5.656000  0.000000
H  22.367000  8.165000  0.000000
H  19.852000  1.261000  0.000000
H  17.690000  -0.000000  0.000000
H  21.104000  3.459000  0.000000
H  2.530000  -0.005000  0.000000
H  15.160000  -0.002000  0.000000
H  0.000000  -0.000000  0.000000
H  -2.163000  1.262000  0.000000
H  -3.415000  3.463000  0.000000
H  -4.677000  8.168000  0.000000
H  -4.678000  5.662000  0.000000
H  -2.159000  12.565000  0.000000
H  10.109000  13.837000  0.000000
H  7.585000  13.838000  0.000000
H  5.062000  13.833000  0.000000
H  2.535000  13.828000  0.000000
H  15.163000  13.830000  0.000000
H  0.007000  13.825000  0.000000
H  -3.412000  10.366000  0.000000
H  12.635000  13.835000  0.000000
H  10.108000  -0.010000  0.000000
H  7.583000  -0.012000  0.000000
H  5.058000  -0.011000  0.000000
H  12.631000  -0.009000  0.000000
C  16.391568  10.553000  0.161416
C  16.391568  12.029000  0.009726
C  17.670751  12.724286  -0.006956
C  17.670751  8.371221  0.320001
C  17.670751  9.823667  0.128786
C  18.905140  10.553000  -0.064290
C  18.905140  12.029000  -0.043398
C  17.670751  4.000000  0.126384
C  17.670751  5.453610  0.299000
C  18.905140  6.197900  0.291686
C  18.905140  7.631998  0.286690
C  20.154752  8.371221  0.149627
C  20.154752  9.823667  -0.024667
C  18.905140  3.272000  -0.053114
C  20.154752  4.000000  -0.006091
C  20.154752  5.453610  0.158887
C  21.411000  6.197900  0.191603
C  21.411000  7.631998  0.178433
C  17.670751  1.101000  -0.003014
C  18.905140  1.797813  -0.040042
C  5.067250  5.453610  0.081324
C  5.067250  4.000000  -0.067147
C  3.815571  3.272000  0.015854
C  3.815571  1.797813  -0.057753
C  11.361143  3.272000  -0.101236
C  2.546438  1.101000  -0.083878
C  3.815571  7.631998  0.209798
C  3.815571  6.197900  0.202456
C  11.361143  7.631998  0.025964
C  2.546438  5.453610  0.322001
C  11.361143  6.197900  0.013093
C  2.546438  4.000000  0.235275
C  10.098375  5.453610  -0.312253
C  16.391568  3.272000  0.165371
C  1.302141  3.272000  0.143905
C  10.098375  4.000000  -0.254386
C  16.391568  1.797813  0.004433
C  1.302141  1.797813  -0.011657
C  8.830644  3.272000  -0.278855
C  15.145562  1.101000  -0.077296
C  0.021251  1.101000  -0.010384
C  11.361143  12.029000  -0.077361
C  2.546438  9.823667  0.268226
C  11.361143  10.553000  -0.032523
C  2.546438  8.371221  0.328042
C  10.098375  9.823667  -0.206965
C  16.391568  7.631998  0.371052
C  1.302141  7.631998  0.347424
C  10.098375  8.371221  -0.309914
C  16.391568  6.197900  0.369091
C  1.302141  6.197900  0.338365
C  15.145562  5.453610  0.321431
C  0.021251  5.453610  0.269382
C  8.830644  7.631998  -0.610066
C  8.830644  6.197900  -0.617679
C  15.145562  4.000000  0.231235
C  0.021251  4.000000  0.097279
C  7.582124  5.453610  -0.307173
C  13.876357  3.272000  0.018928
C  -1.214289  3.272000  -0.095585
C  7.582124  4.000000  -0.262491
C  13.876357  1.797813  -0.069915
C  -1.214289  1.797813  -0.065915
C  10.098375  12.724286  -0.146569
C  1.302141  10.553000  0.170847
C  8.830644  12.029000  -0.277414
C  15.145562  9.823667  0.254169
C  0.021251  9.823667  0.110579
C  8.830644  10.553000  -0.214450
C  15.145562  8.371221  0.332779
C  0.021251  8.371221  0.293830
C  7.582124  9.823667  -0.200023
C  13.876357  7.631998  0.194582
C  -1.214289  7.631998  0.252442
C  7.582124  8.371221  -0.281166
C  13.876357  6.197900  0.186551
C  -1.214289  6.197900  0.248814
C  6.330357  7.631998  0.043053
C  12.623562  5.453610  0.066290
C  -2.463372  5.453610  0.110764
C  6.330357  6.197900  0.036027
C  12.623562  4.000000  -0.073523
C  -2.463372  4.000000  -0.051103
C  7.582124  12.724286  -0.119082
C  13.876357  10.553000  0.056059
C  -1.214289  10.553000  -0.088807
C  6.330357  12.029000  -0.041866
C  12.623562  9.823667  -0.018798
C  -2.463372  9.823667  -0.064097
C  6.330357  10.553000  -0.040907
C  12.623562  8.371221  0.079062
C  -2.463372  8.371221  0.113178
C  5.067250  9.823667  -0.011040
C  -3.721000  7.631998  0.088913
C  5.067250  8.371221  0.101918
C  -3.721000  6.197900  0.093212
C  5.067250  12.724286  0.094938
C  3.815571  12.029000  0.011539
C  3.815571  10.553000  0.080276
C  2.546438  12.724286  -0.021863
C  1.302141  12.029000  0.027753
C  6.330357  3.272000  -0.095607
C  15.145562  12.724286  -0.053099
C  0.021251  12.724286  0.020232
C  13.876357  12.029000  -0.013410
C  -1.214289  12.029000  -0.043803
C  12.623562  12.724286  0.058583
C  6.330357  1.797813  -0.152744
C  8.830644  1.797813  -0.385763
C  11.361143  1.797813  -0.152019
C  10.098375  1.101000  -0.261907
C  7.582124  1.101000  -0.245747
C  5.067250  1.101000  -0.005580
C  12.623562  1.101000  -0.005883
