142
frame	232
H  17.693000  13.826000  0.000000
H  19.858000  12.564000  0.000000
H  21.106000  10.363000  0.000000
H  22.366000  5.656000  0.000000
H  22.367000  8.165000  0.000000
H  19.852000  1.261000  0.000000
H  17.690000  -0.000000  0.000000
H  21.104000  3.459000  0.000000
H  2.530000  -0.005000  0.000000
H  15.160000  -0.002000  0.000000
H  0.000000  -0.000000  0.000000
H  -2.163000  1.262000  0.000000
H  -3.415000  3.463000  0.000000
H  -4.677000  8.168000  0.000000
H  -4.678000  5.662000  0.000000
H  -2.159000  12.565000  0.000000
H  10.109000  13.837000  0.000000
H  7.585000  13.838000  0.000000
H  5.062000  13.833000  0.000000
H  2.535000  13.828000  0.000000
H  15.163000  13.830000  0.000000
H  0.007000  13.825000  0.000000
H  -3.412000  10.366000  0.000000
H  12.635000  13.835000  0.000000
H  10.108000  -0.010000  0.000000
H  7.583000  -0.012000  0.000000
H  5.058000  -0.011000  0.000000
H  12.631000  -0.009000  0.000000
C  16.391568  10.553000  -0.246130
C  16.391568  12.029000  -0.140848
C  17.670751  12.724286  -0.040850
C  17.670751  8.371221  0.139443
C  17.670751  9.823667  -0.184331
C  18.905140  10.553000  -0.153435
C  18.905140  12.029000  -0.076703
C  17.670751  4.000000  -0.190094
C  17.670751  5.453610  0.124675
C  18.905140  6.197900  0.465192
C  18.905140  7.631998  0.479906
C  20.154752  8.371221  0.276329
C  20.154752  9.823667  -0.026283
C  18.905140  3.272000  -0.151459
C  20.154752  4.000000  0.006560
C  20.154752  5.453610  0.270471
C  21.411000  6.197900  0.243374
C  21.411000  7.631998  0.235932
C  17.670751  1.101000  -0.042159
C  18.905140  1.797813  -0.052814
C  5.067250  5.453610  -0.701891
C  5.067250  4.000000  -0.506161
C  3.815571  3.272000  -0.338372
C  3.815571  1.797813  -0.290101
C  11.361143  3.272000  -0.479792
C  2.546438  1.101000  -0.167633
C  3.815571  7.631998  -0.653794
C  3.815571  6.197900  -0.673953
C  11.361143  7.631998  -0.777048
C  2.546438  5.453610  -0.341432
C  11.361143  6.197900  -0.779062
C  2.546438  4.000000  -0.296163
C  10.098375  5.453610  -0.742717
C  16.391568  3.272000  -0.247024
C  1.302141  3.272000  -0.274122
C  10.098375  4.000000  -0.562226
C  16.391568  1.797813  -0.161208
C  1.302141  1.797813  -0.176481
C  8.830644  3.272000  -0.454136
C  15.145562  1.101000  -0.164451
C  0.021251  1.101000  -0.044876
C  11.361143  12.029000  -0.259549
C  2.546438  9.823667  -0.260145
C  11.361143  10.553000  -0.400286
C  2.546438  8.371221  -0.316372
C  10.098375  9.823667  -0.499418
C  16.391568  7.631998  0.003025
C  1.302141  7.631998  -0.018747
C  10.098375  8.371221  -0.704332
C  16.391568  6.197900  -0.008864
C  1.302141  6.197900  -0.026799
C  15.145562  5.453610  -0.317934
C  0.021251  5.453610  0.089850
C  8.830644  7.631998  -0.811270
C  8.830644  6.197900  -0.824964
C  15.145562  4.000000  -0.295847
C  0.021251  4.000000  -0.230793
C  7.582124  5.453610  -0.742613
C  13.876357  3.272000  -0.344365
C  -1.214289  3.272000  -0.195431
C  7.582124  4.000000  -0.561110
C  13.876357  1.797813  -0.306361
C  -1.214289  1.797813  -0.093941
C  10.098375  12.724286  -0.156251
C  1.302141  10.553000  -0.235917
C  8.830644  12.029000  -0.154258
C  15.145562  9.823667  -0.266104
C  0.021251  9.823667  -0.210948
C  8.830644  10.553000  -0.359166
C  15.145562  8.371221  -0.315821
C  0.021251  8.371221  0.106829
C  7.582124  9.823667  -0.485022
C  13.876357  7.631998  -0.646533
C  -1.214289  7.631998  0.428240
C  7.582124  8.371221  -0.711310
C  13.876357  6.197900  -0.642857
C  -1.214289  6.197900  0.430645
C  6.330357  7.631998  -0.778141
C  12.623562  5.453610  -0.691231
C  -2.463372  5.453610  0.198098
C  6.330357  6.197900  -0.793037
C  12.623562  4.000000  -0.494801
C  -2.463372  4.000000  -0.073528
C  7.582124  12.724286  -0.139718
C  13.876357  10.553000  -0.302454
C  -1.214289  10.553000  -0.185677
C  6.330357  12.029000  -0.240179
C  12.623562  9.823667  -0.446447
C  -2.463372  9.823667  -0.068669
C  6.330357  10.553000  -0.395435
C  12.623562  8.371221  -0.681091
C  -2.463372  8.371221  0.185842
C  5.067250  9.823667  -0.436565
C  -3.721000  7.631998  0.116022
C  5.067250  8.371221  -0.675902
C  -3.721000  6.197900  0.126132
C  5.067250  12.724286  -0.138888
C  3.815571  12.029000  -0.203422
C  3.815571  10.553000  -0.283733
C  2.546438  12.724286  -0.088381
C  1.302141  12.029000  -0.134118
C  6.330357  3.272000  -0.485240
C  15.145562  12.724286  -0.127514
C  0.021251  12.724286  -0.024060
C  13.876357  12.029000  -0.246824
C  -1.214289  12.029000  -0.086367
C  12.623562  12.724286  -0.181950
C  6.330357  1.797813  -0.358747
C  8.830644  1.797813  -0.285111
C  11.361143  1.797813  -0.361847
C  10.098375  1.101000  -0.290464
C  7.582124  1.101000  -0.279598
C  5.067250  1.101000  -0.252988
C  12.623562  1.101000  -0.261849
