142
frame	559
H  17.693000  13.826000  0.000000
H  19.858000  12.564000  0.000000
H  21.106000  10.363000  0.000000
H  22.366000  5.656000  0.000000
H  22.367000  8.165000  0.000000
H  19.852000  1.261000  0.000000
H  17.690000  -0.000000  0.000000
H  21.104000  3.459000  0.000000
H  2.530000  -0.005000  0.000000
H  15.160000  -0.002000  0.000000
H  0.000000  -0.000000  0.000000
H  -2.163000  1.262000  0.000000
H  -3.415000  3.463000  0.000000
H  -4.677000  8.168000  0.000000
H  -4.678000  5.662000  0.000000
H  -2.159000  12.565000  0.000000
H  10.109000  13.837000  0.000000
H  7.585000  13.838000  0.000000
H  5.062000  13.833000  0.000000
H  2.535000  13.828000  0.000000
H  15.163000  13.830000  0.000000
H  0.007000  13.825000  0.000000
H  -3.412000  10.366000  0.000000
H  12.635000  13.835000  0.000000
H  10.108000  -0.010000  0.000000
H  7.583000  -0.012000  0.000000
H  5.058000  -0.011000  0.000000
H  12.631000  -0.009000  0.000000
C  16.391568  10.553000  0.006979
C  16.391568  12.029000  0.057848
C  17.670751  12.724286  0.078415
C  17.670751  8.371221  -0.144116
C  17.670751  9.823667  0.075886
C  18.905140  10.553000  0.282608
C  18.905140  12.029000  0.180810
C  17.670751  4.000000  0.071106
C  17.670751  5.453610  -0.137652
C  18.905140  6.197900  -0.220420
C  18.905140  7.631998  -0.227532
C  20.154752  8.371221  0.076065
C  20.154752  9.823667  0.260017
C  18.905140  3.272000  0.285495
C  20.154752  4.000000  0.253466
C  20.154752  5.453610  0.082160
C  21.411000  6.197900  0.179295
C  21.411000  7.631998  0.178359
C  17.670751  1.101000  0.087460
C  18.905140  1.797813  0.197370
C  5.067250  5.453610  -0.012116
C  5.067250  4.000000  -0.038758
C  3.815571  3.272000  -0.063724
C  3.815571  1.797813  -0.063225
C  11.361143  3.272000  -0.272759
C  2.546438  1.101000  0.030319
C  3.815571  7.631998  0.132830
C  3.815571  6.197900  0.116413
C  11.361143  7.631998  -0.197918
C  2.546438  5.453610  -0.002841
C  11.361143  6.197900  -0.222769
C  2.546438  4.000000  -0.109114
C  10.098375  5.453610  -0.313653
C  16.391568  3.272000  -0.014914
C  1.302141  3.272000  -0.031110
C  10.098375  4.000000  -0.396639
C  16.391568  1.797813  0.027454
C  1.302141  1.797813  0.000640
C  8.830644  3.272000  -0.366085
C  15.145562  1.101000  0.024377
C  0.021251  1.101000  0.067423
C  11.361143  12.029000  -0.212879
C  2.546438  9.823667  -0.080209
C  11.361143  10.553000  -0.220643
C  2.546438  8.371221  -0.004431
C  10.098375  9.823667  -0.350542
C  16.391568  7.631998  -0.110316
C  1.302141  7.631998  -0.118684
C  10.098375  8.371221  -0.287325
C  16.391568  6.197900  -0.110338
C  1.302141  6.197900  -0.120836
C  15.145562  5.453610  0.012664
C  0.021251  5.453610  -0.152860
C  8.830644  7.631998  -0.105739
C  8.830644  6.197900  -0.125495
C  15.145562  4.000000  -0.085971
C  0.021251  4.000000  0.053315
C  7.582124  5.453610  -0.319930
C  13.876357  3.272000  -0.032610
C  -1.214289  3.272000  0.248773
C  7.582124  4.000000  -0.395864
C  13.876357  1.797813  -0.069443
C  -1.214289  1.797813  0.171424
C  10.098375  12.724286  -0.008131
C  1.302141  10.553000  0.000003
C  8.830644  12.029000  -0.033314
C  15.145562  9.823667  -0.065819
C  0.021251  9.823667  0.060098
C  8.830644  10.553000  -0.306285
C  15.145562  8.371221  0.017663
C  0.021251  8.371221  -0.149774
C  7.582124  9.823667  -0.338407
C  13.876357  7.631998  0.138613
C  -1.214289  7.631998  -0.268806
C  7.582124  8.371221  -0.293765
C  13.876357  6.197900  0.135275
C  -1.214289  6.197900  -0.260199
C  6.330357  7.631998  -0.216384
C  12.623562  5.453610  -0.008119
C  -2.463372  5.453610  0.007237
C  6.330357  6.197900  -0.225338
C  12.623562  4.000000  -0.034274
C  -2.463372  4.000000  0.200294
C  7.582124  12.724286  -0.012540
C  13.876357  10.553000  -0.015486
C  -1.214289  10.553000  0.249865
C  6.330357  12.029000  -0.190414
C  12.623562  9.823667  -0.015971
C  -2.463372  9.823667  0.187691
C  6.330357  10.553000  -0.209541
C  12.623562  8.371221  0.001386
C  -2.463372  8.371221  0.008804
C  5.067250  9.823667  -0.003521
C  -3.721000  7.631998  0.058750
C  5.067250  8.371221  0.000377
C  -3.721000  6.197900  0.066731
C  5.067250  12.724286  -0.038714
C  3.815571  12.029000  0.008396
C  3.815571  10.553000  -0.020480
C  2.546438  12.724286  0.108855
C  1.302141  12.029000  0.056532
C  6.330357  3.272000  -0.260743
C  15.145562  12.724286  0.082312
C  0.021251  12.724286  0.095020
C  13.876357  12.029000  -0.004625
C  -1.214289  12.029000  0.175336
C  12.623562  12.724286  -0.059618
C  6.330357  1.797813  -0.300355
C  8.830644  1.797813  -0.133761
C  11.361143  1.797813  -0.299936
C  10.098375  1.101000  -0.144637
C  7.582124  1.101000  -0.136858
C  5.067250  1.101000  -0.147379
C  12.623562  1.101000  -0.140412
