142
frame	610
H  17.693000  13.826000  0.000000
H  19.858000  12.564000  0.000000
H  21.106000  10.363000  0.000000
H  22.366000  5.656000  0.000000
H  22.367000  8.165000  0.000000
H  19.852000  1.261000  0.000000
H  17.690000  -0.000000  0.000000
H  21.104000  3.459000  0.000000
H  2.530000  -0.005000  0.000000
H  15.160000  -0.002000  0.000000
H  0.000000  -0.000000  0.000000
H  -2.163000  1.262000  0.000000
H  -3.415000  3.463000  0.000000
H  -4.677000  8.168000  0.000000
H  -4.678000  5.662000  0.000000
H  -2.159000  12.565000  0.000000
H  10.109000  13.837000  0.000000
H  7.585000  13.838000  0.000000
H  5.062000  13.833000  0.000000
H  2.535000  13.828000  0.000000
H  15.163000  13.830000  0.000000
H  0.007000  13.825000  0.000000
H  -3.412000  10.366000  0.000000
H  12.635000  13.835000  0.000000
H  10.108000  -0.010000  0.000000
H  7.583000  -0.012000  0.000000
H  5.058000  -0.011000  0.000000
H  12.631000  -0.009000  0.000000
C  16.391568  10.553000  0.165566
C  16.391568  12.029000  0.008659
C  17.670751  12.724286  -0.033107
C  17.670751  8.371221  0.337117
C  17.670751  9.823667  0.144918
C  18.905140  10.553000  -0.068500
C  18.905140  12.029000  -0.053570
C  17.670751  4.000000  0.142699
C  17.670751  5.453610  0.317203
C  18.905140  6.197900  0.295718
C  18.905140  7.631998  0.285816
C  20.154752  8.371221  0.153504
C  20.154752  9.823667  -0.018883
C  18.905140  3.272000  -0.060283
C  20.154752  4.000000  -0.000203
C  20.154752  5.453610  0.163967
C  21.411000  6.197900  0.207409
C  21.411000  7.631998  0.193187
C  17.670751  1.101000  -0.025163
C  18.905140  1.797813  -0.052019
C  5.067250  5.453610  0.079755
C  5.067250  4.000000  -0.061760
C  3.815571  3.272000  0.014133
C  3.815571  1.797813  -0.036722
C  11.361143  3.272000  -0.103122
C  2.546438  1.101000  -0.075958
C  3.815571  7.631998  0.202986
C  3.815571  6.197900  0.197595
C  11.361143  7.631998  0.012028
C  2.546438  5.453610  0.333204
C  11.361143  6.197900  -0.002021
C  2.546438  4.000000  0.235112
C  10.098375  5.453610  -0.306454
C  16.391568  3.272000  0.169602
C  1.302141  3.272000  0.146860
C  10.098375  4.000000  -0.258533
C  16.391568  1.797813  0.001387
C  1.302141  1.797813  -0.011599
C  8.830644  3.272000  -0.269633
C  15.145562  1.101000  -0.069333
C  0.021251  1.101000  -0.037323
C  11.361143  12.029000  -0.074612
C  2.546438  9.823667  0.267867
C  11.361143  10.553000  -0.033468
C  2.546438  8.371221  0.341304
C  10.098375  9.823667  -0.212093
C  16.391568  7.631998  0.399975
C  1.302141  7.631998  0.374643
C  10.098375  8.371221  -0.304232
C  16.391568  6.197900  0.396892
C  1.302141  6.197900  0.368619
C  15.145562  5.453610  0.333156
C  0.021251  5.453610  0.286279
C  8.830644  7.631998  -0.577142
C  8.830644  6.197900  -0.582783
C  15.145562  4.000000  0.230383
C  0.021251  4.000000  0.114079
C  7.582124  5.453610  -0.304870
C  13.876357  3.272000  0.014686
C  -1.214289  3.272000  -0.100458
C  7.582124  4.000000  -0.267263
C  13.876357  1.797813  -0.050950
C  -1.214289  1.797813  -0.075768
C  10.098375  12.724286  -0.140618
C  1.302141  10.553000  0.175655
C  8.830644  12.029000  -0.265401
C  15.145562  9.823667  0.252309
C  0.021251  9.823667  0.129276
C  8.830644  10.553000  -0.205513
C  15.145562  8.371221  0.344527
C  0.021251  8.371221  0.311740
C  7.582124  9.823667  -0.203802
C  13.876357  7.631998  0.189442
C  -1.214289  7.631998  0.255270
C  7.582124  8.371221  -0.278005
C  13.876357  6.197900  0.181425
C  -1.214289  6.197900  0.247678
C  6.330357  7.631998  0.030108
C  12.623562  5.453610  0.062971
C  -2.463372  5.453610  0.117806
C  6.330357  6.197900  0.024148
C  12.623562  4.000000  -0.065843
C  -2.463372  4.000000  -0.046920
C  7.582124  12.724286  -0.115040
C  13.876357  10.553000  0.053783
C  -1.214289  10.553000  -0.094766
C  6.330357  12.029000  -0.039875
C  12.623562  9.823667  -0.011307
C  -2.463372  9.823667  -0.060050
C  6.330357  10.553000  -0.038843
C  12.623562  8.371221  0.076653
C  -2.463372  8.371221  0.118061
C  5.067250  9.823667  -0.006853
C  -3.721000  7.631998  0.103031
C  5.067250  8.371221  0.102362
C  -3.721000  6.197900  0.105349
C  5.067250  12.724286  0.104164
C  3.815571  12.029000  0.033651
C  3.815571  10.553000  0.079432
C  2.546438  12.724286  -0.013868
C  1.302141  12.029000  0.026843
C  6.330357  3.272000  -0.094584
C  15.145562  12.724286  -0.045049
C  0.021251  12.724286  -0.005670
C  13.876357  12.029000  0.004456
C  -1.214289  12.029000  -0.055834
C  12.623562  12.724286  0.067284
C  6.330357  1.797813  -0.151577
C  8.830644  1.797813  -0.374870
C  11.361143  1.797813  -0.150238
C  10.098375  1.101000  -0.258956
C  7.582124  1.101000  -0.241770
C  5.067250  1.101000  0.003773
C  12.623562  1.101000  0.002914
