142
frame	796
H  17.693000  13.826000  0.000000
H  19.858000  12.564000  0.000000
H  21.106000  10.363000  0.000000
H  22.366000  5.656000  0.000000
H  22.367000  8.165000  0.000000
H  19.852000  1.261000  0.000000
H  17.690000  -0.000000  0.000000
H  21.104000  3.459000  0.000000
H  2.530000  -0.005000  0.000000
H  15.160000  -0.002000  0.000000
H  0.000000  -0.000000  0.000000
H  -2.163000  1.262000  0.000000
H  -3.415000  3.463000  0.000000
H  -4.677000  8.168000  0.000000
H  -4.678000  5.662000  0.000000
H  -2.159000  12.565000  0.000000
H  10.109000  13.837000  0.000000
H  7.585000  13.838000  0.000000
H  5.062000  13.833000  0.000000
H  2.535000  13.828000  0.000000
H  15.163000  13.830000  0.000000
H  0.007000  13.825000  0.000000
H  -3.412000  10.366000  0.000000
H  12.635000  13.835000  0.000000
H  10.108000  -0.010000  0.000000
H  7.583000  -0.012000  0.000000
H  5.058000  -0.011000  0.000000
H  12.631000  -0.009000  0.000000
C  16.391568  10.553000  0.290287
C  16.391568  12.029000  0.169195
C  17.670751  12.724286  -0.024279
C  17.670751  8.371221  0.447358
C  17.670751  9.823667  0.238973
C  18.905140  10.553000  0.084035
C  18.905140  12.029000  -0.006318
C  17.670751  4.000000  0.230415
C  17.670751  5.453610  0.468873
C  18.905140  6.197900  0.386553
C  18.905140  7.631998  0.392402
C  20.154752  8.371221  0.251709
C  20.154752  9.823667  0.127105
C  18.905140  3.272000  0.086198
C  20.154752  4.000000  0.138646
C  20.154752  5.453610  0.257934
C  21.411000  6.197900  0.292849
C  21.411000  7.631998  0.296724
C  17.670751  1.101000  -0.040004
C  18.905140  1.797813  0.005581
C  5.067250  5.453610  0.623571
C  5.067250  4.000000  0.474055
C  3.815571  3.272000  0.280152
C  3.815571  1.797813  0.079148
C  11.361143  3.272000  0.282213
C  2.546438  1.101000  0.067028
C  3.815571  7.631998  0.629651
C  3.815571  6.197900  0.603632
C  11.361143  7.631998  0.567364
C  2.546438  5.453610  0.558358
C  11.361143  6.197900  0.541282
C  2.546438  4.000000  0.371551
C  10.098375  5.453610  0.335792
C  16.391568  3.272000  0.267950
C  1.302141  3.272000  0.275270
C  10.098375  4.000000  0.358779
C  16.391568  1.797813  0.150131
C  1.302141  1.797813  0.149466
C  8.830644  3.272000  0.247485
C  15.145562  1.101000  0.072203
C  0.021251  1.101000  -0.047956
C  11.361143  12.029000  0.186778
C  2.546438  9.823667  0.414224
C  11.361143  10.553000  0.357405
C  2.546438  8.371221  0.575040
C  10.098375  9.823667  0.417236
C  16.391568  7.631998  0.610226
C  1.302141  7.631998  0.635104
C  10.098375  8.371221  0.372703
C  16.391568  6.197900  0.613400
C  1.302141  6.197900  0.629037
C  15.145562  5.453610  0.540208
C  0.021251  5.453610  0.460992
C  8.830644  7.631998  0.312754
C  8.830644  6.197900  0.287486
C  15.145562  4.000000  0.362073
C  0.021251  4.000000  0.225616
C  7.582124  5.453610  0.359836
C  13.876357  3.272000  0.277458
C  -1.214289  3.272000  0.063737
C  7.582124  4.000000  0.354309
C  13.876357  1.797813  0.068725
C  -1.214289  1.797813  -0.017928
C  10.098375  12.724286  0.112704
C  1.302141  10.553000  0.325596
C  8.830644  12.029000  0.217432
C  15.145562  9.823667  0.390458
C  0.021251  9.823667  0.249080
C  8.830644  10.553000  0.338701
C  15.145562  8.371221  0.543001
C  0.021251  8.371221  0.466311
C  7.582124  9.823667  0.438849
C  13.876357  7.631998  0.568418
C  -1.214289  7.631998  0.360453
C  7.582124  8.371221  0.393968
C  13.876357  6.197900  0.560158
C  -1.214289  6.197900  0.357622
C  6.330357  7.631998  0.591827
C  12.623562  5.453610  0.585872
C  -2.463372  5.453610  0.201296
C  6.330357  6.197900  0.575545
C  12.623562  4.000000  0.455834
C  -2.463372  4.000000  0.081875
C  7.582124  12.724286  0.135896
C  13.876357  10.553000  0.324090
C  -1.214289  10.553000  0.062179
C  6.330357  12.029000  0.236265
C  12.623562  9.823667  0.491586
C  -2.463372  9.823667  0.079479
C  6.330357  10.553000  0.397139
C  12.623562  8.371221  0.611584
C  -2.463372  8.371221  0.193951
C  5.067250  9.823667  0.536642
C  -3.721000  7.631998  0.198853
C  5.067250  8.371221  0.656388
C  -3.721000  6.197900  0.197979
C  5.067250  12.724286  0.109559
C  3.815571  12.029000  0.174157
C  3.815571  10.553000  0.342739
C  2.546438  12.724286  0.160005
C  1.302141  12.029000  0.214266
C  6.330357  3.272000  0.313812
C  15.145562  12.724286  0.120740
C  0.021251  12.724286  -0.024821
C  13.876357  12.029000  0.145614
C  -1.214289  12.029000  -0.009104
C  12.623562  12.724286  0.081619
C  6.330357  1.797813  0.108024
C  8.830644  1.797813  0.094466
C  11.361143  1.797813  0.068572
C  10.098375  1.101000  -0.027354
C  7.582124  1.101000  -0.014958
C  5.067250  1.101000  -0.015900
C  12.623562  1.101000  -0.050578
