142
frame	351
H  17.693000  13.826000  0.000000
H  19.858000  12.564000  0.000000
H  21.106000  10.363000  0.000000
H  22.366000  5.656000  0.000000
H  22.367000  8.165000  0.000000
H  19.852000  1.261000  0.000000
H  17.690000  -0.000000  0.000000
H  21.104000  3.459000  0.000000
H  2.530000  -0.005000  0.000000
H  15.160000  -0.002000  0.000000
H  0.000000  -0.000000  0.000000
H  -2.163000  1.262000  0.000000
H  -3.415000  3.463000  0.000000
H  -4.677000  8.168000  0.000000
H  -4.678000  5.662000  0.000000
H  -2.159000  12.565000  0.000000
H  10.109000  13.837000  0.000000
H  7.585000  13.838000  0.000000
H  5.062000  13.833000  0.000000
H  2.535000  13.828000  0.000000
H  15.163000  13.830000  0.000000
H  0.007000  13.825000  0.000000
H  -3.412000  10.366000  0.000000
H  12.635000  13.835000  0.000000
H  10.108000  -0.010000  0.000000
H  7.583000  -0.012000  0.000000
H  5.058000  -0.011000  0.000000
H  12.631000  -0.009000  0.000000
C  16.391568  10.553000  -0.205127
C  16.391568  12.029000  -0.098539
C  17.670751  12.724286  -0.128375
C  17.670751  8.371221  -0.535685
C  17.670751  9.823667  -0.250341
C  18.905140  10.553000  -0.172697
C  18.905140  12.029000  -0.120137
C  17.670751  4.000000  -0.269857
C  17.670751  5.453610  -0.534312
C  18.905140  6.197900  -0.640876
C  18.905140  7.631998  -0.658864
C  20.154752  8.371221  -0.330609
C  20.154752  9.823667  -0.145023
C  18.905140  3.272000  -0.156321
C  20.154752  4.000000  -0.148223
C  20.154752  5.453610  -0.326713
C  21.411000  6.197900  0.017933
C  21.411000  7.631998  0.022842
C  17.670751  1.101000  -0.110126
C  18.905140  1.797813  -0.104040
C  5.067250  5.453610  -0.532203
C  5.067250  4.000000  -0.462570
C  3.815571  3.272000  -0.444966
C  3.815571  1.797813  -0.196077
C  11.361143  3.272000  -0.471114
C  2.546438  1.101000  -0.065928
C  3.815571  7.631998  -0.520937
C  3.815571  6.197900  -0.544379
C  11.361143  7.631998  -0.519568
C  2.546438  5.453610  -0.573909
C  11.361143  6.197900  -0.532323
C  2.546438  4.000000  -0.492177
C  10.098375  5.453610  -0.364790
C  16.391568  3.272000  -0.218942
C  1.302141  3.272000  -0.271011
C  10.098375  4.000000  -0.519704
C  16.391568  1.797813  -0.113428
C  1.302141  1.797813  -0.161552
C  8.830644  3.272000  -0.648727
C  15.145562  1.101000  -0.060922
C  0.021251  1.101000  -0.153781
C  11.361143  12.029000  -0.217476
C  2.546438  9.823667  -0.440991
C  11.361143  10.553000  -0.397926
C  2.546438  8.371221  -0.547496
C  10.098375  9.823667  -0.463820
C  16.391568  7.631998  -0.601248
C  1.302141  7.631998  -0.662713
C  10.098375  8.371221  -0.328614
C  16.391568  6.197900  -0.614177
C  1.302141  6.197900  -0.670564
C  15.145562  5.453610  -0.527410
C  0.021251  5.453610  -0.594949
C  8.830644  7.631998  -0.131259
C  8.830644  6.197900  -0.151396
C  15.145562  4.000000  -0.452699
C  0.021251  4.000000  -0.320821
C  7.582124  5.453610  -0.379929
C  13.876357  3.272000  -0.426777
C  -1.214289  3.272000  -0.236519
C  7.582124  4.000000  -0.540857
C  13.876357  1.797813  -0.198127
C  -1.214289  1.797813  -0.134047
C  10.098375  12.724286  -0.192481
C  1.302141  10.553000  -0.226330
C  8.830644  12.029000  -0.328503
C  15.145562  9.823667  -0.420489
C  0.021251  9.823667  -0.308146
C  8.830644  10.553000  -0.556885
C  15.145562  8.371221  -0.499751
C  0.021251  8.371221  -0.588314
C  7.582124  9.823667  -0.456923
C  13.876357  7.631998  -0.507408
C  -1.214289  7.631998  -0.752153
C  7.582124  8.371221  -0.326696
C  13.876357  6.197900  -0.525861
C  -1.214289  6.197900  -0.753788
C  6.330357  7.631998  -0.524214
C  12.623562  5.453610  -0.523883
C  -2.463372  5.453610  -0.416860
C  6.330357  6.197900  -0.542276
C  12.623562  4.000000  -0.441746
C  -2.463372  4.000000  -0.220626
C  7.582124  12.724286  -0.182435
C  13.876357  10.553000  -0.382781
C  -1.214289  10.553000  -0.227878
C  6.330357  12.029000  -0.203486
C  12.623562  9.823667  -0.396492
C  -2.463372  9.823667  -0.231082
C  6.330357  10.553000  -0.395767
C  12.623562  8.371221  -0.489666
C  -2.463372  8.371221  -0.416970
C  5.067250  9.823667  -0.402277
C  -3.721000  7.631998  -0.108193
C  5.067250  8.371221  -0.503879
C  -3.721000  6.197900  -0.101868
C  5.067250  12.724286  -0.081306
C  3.815571  12.029000  -0.097414
C  3.815571  10.553000  -0.391530
C  2.546438  12.724286  0.006843
C  1.302141  12.029000  -0.108799
C  6.330357  3.272000  -0.482864
C  15.145562  12.724286  -0.006082
C  0.021251  12.724286  -0.127247
C  13.876357  12.029000  -0.130317
C  -1.214289  12.029000  -0.147220
C  12.623562  12.724286  -0.114348
C  6.330357  1.797813  -0.327080
C  8.830644  1.797813  -0.447960
C  11.361143  1.797813  -0.325063
C  10.098375  1.101000  -0.329947
C  7.582124  1.101000  -0.326913
C  5.067250  1.101000  -0.207861
C  12.623562  1.101000  -0.214902
