142
frame	255
H  17.693000  13.826000  0.000000
H  19.858000  12.564000  0.000000
H  21.106000  10.363000  0.000000
H  22.366000  5.656000  0.000000
H  22.367000  8.165000  0.000000
H  19.852000  1.261000  0.000000
H  17.690000  -0.000000  0.000000
H  21.104000  3.459000  0.000000
H  2.530000  -0.005000  0.000000
H  15.160000  -0.002000  0.000000
H  0.000000  -0.000000  0.000000
H  -2.163000  1.262000  0.000000
H  -3.415000  3.463000  0.000000
H  -4.677000  8.168000  0.000000
H  -4.678000  5.662000  0.000000
H  -2.159000  12.565000  0.000000
H  10.109000  13.837000  0.000000
H  7.585000  13.838000  0.000000
H  5.062000  13.833000  0.000000
H  2.535000  13.828000  0.000000
H  15.163000  13.830000  0.000000
H  0.007000  13.825000  0.000000
H  -3.412000  10.366000  0.000000
H  12.635000  13.835000  0.000000
H  10.108000  -0.010000  0.000000
H  7.583000  -0.012000  0.000000
H  5.058000  -0.011000  0.000000
H  12.631000  -0.009000  0.000000
C  16.391568  10.553000  -0.311918
C  16.391568  12.029000  -0.297421
C  17.670751  12.724286  -0.101082
C  17.670751  8.371221  -0.003091
C  17.670751  9.823667  -0.246887
C  18.905140  10.553000  -0.178682
C  18.905140  12.029000  -0.072812
C  17.670751  4.000000  -0.250351
C  17.670751  5.453610  -0.003503
C  18.905140  6.197900  0.128030
C  18.905140  7.631998  0.121356
C  20.154752  8.371221  0.185334
C  20.154752  9.823667  0.112370
C  18.905140  3.272000  -0.155451
C  20.154752  4.000000  0.109270
C  20.154752  5.453610  0.191567
C  21.411000  6.197900  0.269329
C  21.411000  7.631998  0.280247
C  17.670751  1.101000  -0.105007
C  18.905140  1.797813  -0.068892
C  5.067250  5.453610  -0.790434
C  5.067250  4.000000  -0.518323
C  3.815571  3.272000  -0.288650
C  3.815571  1.797813  -0.148570
C  11.361143  3.272000  -0.476149
C  2.546438  1.101000  -0.231972
C  3.815571  7.631998  -0.691804
C  3.815571  6.197900  -0.696899
C  11.361143  7.631998  -0.784497
C  2.546438  5.453610  -0.350310
C  11.361143  6.197900  -0.805303
C  2.546438  4.000000  -0.291241
C  10.098375  5.453610  -0.755962
C  16.391568  3.272000  -0.336687
C  1.302141  3.272000  -0.357017
C  10.098375  4.000000  -0.588053
C  16.391568  1.797813  -0.311281
C  1.302141  1.797813  -0.323588
C  8.830644  3.272000  -0.508590
C  15.145562  1.101000  -0.235626
C  0.021251  1.101000  -0.129789
C  11.361143  12.029000  -0.101454
C  2.546438  9.823667  -0.247020
C  11.361143  10.553000  -0.412787
C  2.546438  8.371221  -0.334840
C  10.098375  9.823667  -0.524174
C  16.391568  7.631998  -0.040906
C  1.302141  7.631998  -0.064067
C  10.098375  8.371221  -0.716869
C  16.391568  6.197900  -0.040932
C  1.302141  6.197900  -0.081252
C  15.145562  5.453610  -0.329439
C  0.021251  5.453610  -0.052926
C  8.830644  7.631998  -0.773286
C  8.830644  6.197900  -0.798719
C  15.145562  4.000000  -0.260830
C  0.021251  4.000000  -0.287208
C  7.582124  5.453610  -0.760073
C  13.876357  3.272000  -0.278554
C  -1.214289  3.272000  -0.203315
C  7.582124  4.000000  -0.595755
C  13.876357  1.797813  -0.150429
C  -1.214289  1.797813  -0.081992
C  10.098375  12.724286  0.016318
C  1.302141  10.553000  -0.322323
C  8.830644  12.029000  -0.131603
C  15.145562  9.823667  -0.244862
C  0.021251  9.823667  -0.260619
C  8.830644  10.553000  -0.418207
C  15.145562  8.371221  -0.315184
C  0.021251  8.371221  -0.029513
C  7.582124  9.823667  -0.527021
C  13.876357  7.631998  -0.683698
C  -1.214289  7.631998  0.051100
C  7.582124  8.371221  -0.715125
C  13.876357  6.197900  -0.688893
C  -1.214289  6.197900  0.034886
C  6.330357  7.631998  -0.798810
C  12.623562  5.453610  -0.771970
C  -2.463372  5.453610  0.106008
C  6.330357  6.197900  -0.811577
C  12.623562  4.000000  -0.507590
C  -2.463372  4.000000  0.061578
C  7.582124  12.724286  0.030586
C  13.876357  10.553000  -0.229342
C  -1.214289  10.553000  -0.205094
C  6.330357  12.029000  -0.074134
C  12.623562  9.823667  -0.477415
C  -2.463372  9.823667  0.041093
C  6.330357  10.553000  -0.391522
C  12.623562  8.371221  -0.751780
C  -2.463372  8.371221  0.115762
C  5.067250  9.823667  -0.462684
C  -3.721000  7.631998  0.149897
C  5.067250  8.371221  -0.759958
C  -3.721000  6.197900  0.150940
C  5.067250  12.724286  0.013403
C  3.815571  12.029000  -0.055541
C  3.815571  10.553000  -0.212345
C  2.546438  12.724286  -0.161983
C  1.302141  12.029000  -0.275304
C  6.330357  3.272000  -0.481020
C  15.145562  12.724286  -0.193952
C  0.021251  12.724286  -0.100523
C  13.876357  12.029000  -0.087444
C  -1.214289  12.029000  -0.087606
C  12.623562  12.724286  -0.022070
C  6.330357  1.797813  -0.197689
C  8.830644  1.797813  -0.263352
C  11.361143  1.797813  -0.206894
C  10.098375  1.101000  -0.133127
C  7.582124  1.101000  -0.129673
C  5.067250  1.101000  -0.110876
C  12.623562  1.101000  -0.131188
