142
frame	182
H  17.693000  13.826000  0.000000
H  19.858000  12.564000  0.000000
H  21.106000  10.363000  0.000000
H  22.366000  5.656000  0.000000
H  22.367000  8.165000  0.000000
H  19.852000  1.261000  0.000000
H  17.690000  -0.000000  0.000000
H  21.104000  3.459000  0.000000
H  2.530000  -0.005000  0.000000
H  15.160000  -0.002000  0.000000
H  0.000000  -0.000000  0.000000
H  -2.163000  1.262000  0.000000
H  -3.415000  3.463000  0.000000
H  -4.677000  8.168000  0.000000
H  -4.678000  5.662000  0.000000
H  -2.159000  12.565000  0.000000
H  10.109000  13.837000  0.000000
H  7.585000  13.838000  0.000000
H  5.062000  13.833000  0.000000
H  2.535000  13.828000  0.000000
H  15.163000  13.830000  0.000000
H  0.007000  13.825000  0.000000
H  -3.412000  10.366000  0.000000
H  12.635000  13.835000  0.000000
H  10.108000  -0.010000  0.000000
H  7.583000  -0.012000  0.000000
H  5.058000  -0.011000  0.000000
H  12.631000  -0.009000  0.000000
C  16.391568  10.553000  -0.015525
C  16.391568  12.029000  -0.032311
C  17.670751  12.724286  0.124652
C  17.670751  8.371221  0.002897
C  17.670751  9.823667  0.185799
C  18.905140  10.553000  0.435216
C  18.905140  12.029000  0.287767
C  17.670751  4.000000  0.188253
C  17.670751  5.453610  0.027127
C  18.905140  6.197900  0.134843
C  18.905140  7.631998  0.131061
C  20.154752  8.371221  0.364899
C  20.154752  9.823667  0.425815
C  18.905140  3.272000  0.432220
C  20.154752  4.000000  0.449937
C  20.154752  5.453610  0.366620
C  21.411000  6.197900  0.349314
C  21.411000  7.631998  0.347036
C  17.670751  1.101000  0.115579
C  18.905140  1.797813  0.294735
C  5.067250  5.453610  -0.481336
C  5.067250  4.000000  -0.617041
C  3.815571  3.272000  -0.443474
C  3.815571  1.797813  -0.334706
C  11.361143  3.272000  -0.726099
C  2.546438  1.101000  -0.236884
C  3.815571  7.631998  -0.324840
C  3.815571  6.197900  -0.339061
C  11.361143  7.631998  -0.410356
C  2.546438  5.453610  -0.162857
C  11.361143  6.197900  -0.428226
C  2.546438  4.000000  -0.202821
C  10.098375  5.453610  -0.652198
C  16.391568  3.272000  -0.018210
C  1.302141  3.272000  -0.032693
C  10.098375  4.000000  -0.702478
C  16.391568  1.797813  -0.055042
C  1.302141  1.797813  -0.062836
C  8.830644  3.272000  -0.717298
C  15.145562  1.101000  -0.229412
C  0.021251  1.101000  0.113931
C  11.361143  12.029000  -0.328300
C  2.546438  9.823667  -0.165092
C  11.361143  10.553000  -0.664361
C  2.546438  8.371221  -0.158209
C  10.098375  9.823667  -0.659197
C  16.391568  7.631998  -0.062931
C  1.302141  7.631998  -0.061287
C  10.098375  8.371221  -0.594018
C  16.391568  6.197900  -0.063925
C  1.302141  6.197900  -0.063264
C  15.145562  5.453610  -0.167077
C  0.021251  5.453610  -0.011250
C  8.830644  7.631998  -0.681257
C  8.830644  6.197900  -0.703458
C  15.145562  4.000000  -0.207112
C  0.021251  4.000000  0.171168
C  7.582124  5.453610  -0.646603
C  13.876357  3.272000  -0.439599
C  -1.214289  3.272000  0.411293
C  7.582124  4.000000  -0.697030
C  13.876357  1.797813  -0.344387
C  -1.214289  1.797813  0.269828
C  10.098375  12.724286  -0.213874
C  1.302141  10.553000  0.007047
C  8.830644  12.029000  -0.269123
C  15.145562  9.823667  -0.176847
C  0.021251  9.823667  0.179688
C  8.830644  10.553000  -0.641932
C  15.145562  8.371221  -0.148594
C  0.021251  8.371221  0.001550
C  7.582124  9.823667  -0.641349
C  13.876357  7.631998  -0.339092
C  -1.214289  7.631998  0.090621
C  7.582124  8.371221  -0.602986
C  13.876357  6.197900  -0.340483
C  -1.214289  6.197900  0.086745
C  6.330357  7.631998  -0.413528
C  12.623562  5.453610  -0.500165
C  -2.463372  5.453610  0.307327
C  6.330357  6.197900  -0.419602
C  12.623562  4.000000  -0.606073
C  -2.463372  4.000000  0.394607
C  7.582124  12.724286  -0.194863
C  13.876357  10.553000  -0.392988
C  -1.214289  10.553000  0.406771
C  6.330357  12.029000  -0.307312
C  12.623562  9.823667  -0.571189
C  -2.463372  9.823667  0.385084
C  6.330357  10.553000  -0.647756
C  12.623562  8.371221  -0.464413
C  -2.463372  8.371221  0.300227
C  5.067250  9.823667  -0.552708
C  -3.721000  7.631998  0.249724
C  5.067250  8.371221  -0.450345
C  -3.721000  6.197900  0.253921
C  5.067250  12.724286  -0.136199
C  3.815571  12.029000  -0.245072
C  3.815571  10.553000  -0.383934
C  2.546438  12.724286  -0.162013
C  1.302141  12.029000  -0.009985
C  6.330357  3.272000  -0.727216
C  15.145562  12.724286  -0.198710
C  0.021251  12.724286  0.151771
C  13.876357  12.029000  -0.291066
C  -1.214289  12.029000  0.270411
C  12.623562  12.724286  -0.165121
C  6.330357  1.797813  -0.415813
C  8.830644  1.797813  -0.385305
C  11.361143  1.797813  -0.417046
C  10.098375  1.101000  -0.348308
C  7.582124  1.101000  -0.337467
C  5.067250  1.101000  -0.247299
C  12.623562  1.101000  -0.260170
