142
frame	627
H  17.693000  13.826000  0.000000
H  19.858000  12.564000  0.000000
H  21.106000  10.363000  0.000000
H  22.366000  5.656000  0.000000
H  22.367000  8.165000  0.000000
H  19.852000  1.261000  0.000000
H  17.690000  -0.000000  0.000000
H  21.104000  3.459000  0.000000
H  2.530000  -0.005000  0.000000
H  15.160000  -0.002000  0.000000
H  0.000000  -0.000000  0.000000
H  -2.163000  1.262000  0.000000
H  -3.415000  3.463000  0.000000
H  -4.677000  8.168000  0.000000
H  -4.678000  5.662000  0.000000
H  -2.159000  12.565000  0.000000
H  10.109000  13.837000  0.000000
H  7.585000  13.838000  0.000000
H  5.062000  13.833000  0.000000
H  2.535000  13.828000  0.000000
H  15.163000  13.830000  0.000000
H  0.007000  13.825000  0.000000
H  -3.412000  10.366000  0.000000
H  12.635000  13.835000  0.000000
H  10.108000  -0.010000  0.000000
H  7.583000  -0.012000  0.000000
H  5.058000  -0.011000  0.000000
H  12.631000  -0.009000  0.000000
C  16.391568  10.553000  0.173268
C  16.391568  12.029000  -0.024429
C  17.670751  12.724286  -0.176791
C  17.670751  8.371221  0.426677
C  17.670751  9.823667  0.241963
C  18.905140  10.553000  0.016814
C  18.905140  12.029000  -0.116264
C  17.670751  4.000000  0.243599
C  17.670751  5.453610  0.442856
C  18.905140  6.197900  0.299544
C  18.905140  7.631998  0.291203
C  20.154752  8.371221  0.201771
C  20.154752  9.823667  0.115307
C  18.905140  3.272000  0.011154
C  20.154752  4.000000  0.128565
C  20.154752  5.453610  0.230624
C  21.411000  6.197900  0.323108
C  21.411000  7.631998  0.314776
C  17.670751  1.101000  -0.166469
C  18.905140  1.797813  -0.105197
C  5.067250  5.453610  0.044480
C  5.067250  4.000000  0.050316
C  3.815571  3.272000  0.093328
C  3.815571  1.797813  0.117076
C  11.361143  3.272000  -0.174745
C  2.546438  1.101000  0.048936
C  3.815571  7.631998  0.229110
C  3.815571  6.197900  0.219418
C  11.361143  7.631998  -0.203226
C  2.546438  5.453610  0.362901
C  11.361143  6.197900  -0.206894
C  2.546438  4.000000  0.185718
C  10.098375  5.453610  -0.254962
C  16.391568  3.272000  0.164249
C  1.302141  3.272000  0.156529
C  10.098375  4.000000  -0.252522
C  16.391568  1.797813  -0.028141
C  1.302141  1.797813  -0.037926
C  8.830644  3.272000  -0.302814
C  15.145562  1.101000  0.033262
C  0.021251  1.101000  -0.201250
C  11.361143  12.029000  0.000423
C  2.546438  9.823667  0.225842
C  11.361143  10.553000  -0.114475
C  2.546438  8.371221  0.388018
C  10.098375  9.823667  -0.212387
C  16.391568  7.631998  0.604521
C  1.302141  7.631998  0.583899
C  10.098375  8.371221  -0.231793
C  16.391568  6.197900  0.591884
C  1.302141  6.197900  0.579032
C  15.145562  5.453610  0.367500
C  0.021251  5.453610  0.403674
C  8.830644  7.631998  -0.165264
C  8.830644  6.197900  -0.165697
C  15.145562  4.000000  0.189363
C  0.021251  4.000000  0.216259
C  7.582124  5.453610  -0.258322
C  13.876357  3.272000  0.075534
C  -1.214289  3.272000  -0.009909
C  7.582124  4.000000  -0.248655
C  13.876357  1.797813  0.107109
C  -1.214289  1.797813  -0.129603
C  10.098375  12.724286  -0.060254
C  1.302141  10.553000  0.186426
C  8.830644  12.029000  -0.074847
C  15.145562  9.823667  0.201368
C  0.021251  9.823667  0.241315
C  8.830644  10.553000  -0.236437
C  15.145562  8.371221  0.386805
C  0.021251  8.371221  0.415512
C  7.582124  9.823667  -0.201519
C  13.876357  7.631998  0.216181
C  -1.214289  7.631998  0.273691
C  7.582124  8.371221  -0.241223
C  13.876357  6.197900  0.208223
C  -1.214289  6.197900  0.256615
C  6.330357  7.631998  -0.161885
C  12.623562  5.453610  0.016633
C  -2.463372  5.453610  0.157918
C  6.330357  6.197900  -0.176985
C  12.623562  4.000000  0.044431
C  -2.463372  4.000000  0.062640
C  7.582124  12.724286  -0.048456
C  13.876357  10.553000  0.117726
C  -1.214289  10.553000  -0.008258
C  6.330357  12.029000  0.013050
C  12.623562  9.823667  0.084973
C  -2.463372  9.823667  0.055569
C  6.330357  10.553000  -0.085476
C  12.623562  8.371221  0.047843
C  -2.463372  8.371221  0.154271
C  5.067250  9.823667  0.096565
C  -3.721000  7.631998  0.211669
C  5.067250  8.371221  0.071410
C  -3.721000  6.197900  0.213100
C  5.067250  12.724286  0.112108
C  3.815571  12.029000  0.197970
C  3.815571  10.553000  0.147335
C  2.546438  12.724286  0.112889
C  1.302141  12.029000  0.001812
C  6.330357  3.272000  -0.174739
C  15.145562  12.724286  0.073065
C  0.021251  12.724286  -0.169910
C  13.876357  12.029000  0.145147
C  -1.214289  12.029000  -0.137192
C  12.623562  12.724286  0.066814
C  6.330357  1.797813  -0.092716
C  8.830644  1.797813  -0.188885
C  11.361143  1.797813  -0.097102
C  10.098375  1.101000  -0.194368
C  7.582124  1.101000  -0.189399
C  5.067250  1.101000  -0.000065
C  12.623562  1.101000  -0.007219
