142
frame	711
H  17.693000  13.826000  0.000000
H  19.858000  12.564000  0.000000
H  21.106000  10.363000  0.000000
H  22.366000  5.656000  0.000000
H  22.367000  8.165000  0.000000
H  19.852000  1.261000  0.000000
H  17.690000  -0.000000  0.000000
H  21.104000  3.459000  0.000000
H  2.530000  -0.005000  0.000000
H  15.160000  -0.002000  0.000000
H  0.000000  -0.000000  0.000000
H  -2.163000  1.262000  0.000000
H  -3.415000  3.463000  0.000000
H  -4.677000  8.168000  0.000000
H  -4.678000  5.662000  0.000000
H  -2.159000  12.565000  0.000000
H  10.109000  13.837000  0.000000
H  7.585000  13.838000  0.000000
H  5.062000  13.833000  0.000000
H  2.535000  13.828000  0.000000
H  15.163000  13.830000  0.000000
H  0.007000  13.825000  0.000000
H  -3.412000  10.366000  0.000000
H  12.635000  13.835000  0.000000
H  10.108000  -0.010000  0.000000
H  7.583000  -0.012000  0.000000
H  5.058000  -0.011000  0.000000
H  12.631000  -0.009000  0.000000
C  16.391568  10.553000  0.485175
C  16.391568  12.029000  0.426479
C  17.670751  12.724286  0.259457
C  17.670751  8.371221  0.637111
C  17.670751  9.823667  0.741371
C  18.905140  10.553000  0.573759
C  18.905140  12.029000  0.276166
C  17.670751  4.000000  0.745338
C  17.670751  5.453610  0.654423
C  18.905140  6.197900  0.567362
C  18.905140  7.631998  0.570576
C  20.154752  8.371221  0.528761
C  20.154752  9.823667  0.470417
C  18.905140  3.272000  0.576347
C  20.154752  4.000000  0.479298
C  20.154752  5.453610  0.542611
C  21.411000  6.197900  0.500927
C  21.411000  7.631998  0.493706
C  17.670751  1.101000  0.267779
C  18.905140  1.797813  0.284934
C  5.067250  5.453610  0.229624
C  5.067250  4.000000  0.218529
C  3.815571  3.272000  0.102852
C  3.815571  1.797813  0.075495
C  11.361143  3.272000  0.113674
C  2.546438  1.101000  0.172010
C  3.815571  7.631998  0.250033
C  3.815571  6.197900  0.230432
C  11.361143  7.631998  0.166126
C  2.546438  5.453610  0.205380
C  11.361143  6.197900  0.148696
C  2.546438  4.000000  0.162845
C  10.098375  5.453610  0.049281
C  16.391568  3.272000  0.464997
C  1.302141  3.272000  0.474119
C  10.098375  4.000000  0.099248
C  16.391568  1.797813  0.423036
C  1.302141  1.797813  0.414649
C  8.830644  3.272000  -0.009890
C  15.145562  1.101000  0.173476
C  0.021251  1.101000  0.261961
C  11.361143  12.029000  0.077529
C  2.546438  9.823667  0.200147
C  11.361143  10.553000  0.178609
C  2.546438  8.371221  0.224682
C  10.098375  9.823667  0.160914
C  16.391568  7.631998  0.359820
C  1.302141  7.631998  0.359450
C  10.098375  8.371221  0.087601
C  16.391568  6.197900  0.354704
C  1.302141  6.197900  0.353164
C  15.145562  5.453610  0.178444
C  0.021251  5.453610  0.633167
C  8.830644  7.631998  0.033492
C  8.830644  6.197900  0.008528
C  15.145562  4.000000  0.142689
C  0.021251  4.000000  0.741797
C  7.582124  5.453610  0.052339
C  13.876357  3.272000  0.082689
C  -1.214289  3.272000  0.550559
C  7.582124  4.000000  0.100375
C  13.876357  1.797813  0.053256
C  -1.214289  1.797813  0.263307
C  10.098375  12.724286  0.121898
C  1.302141  10.553000  0.517195
C  8.830644  12.029000  0.196909
C  15.145562  9.823667  0.158030
C  0.021251  9.823667  0.758959
C  8.830644  10.553000  0.083994
C  15.145562  8.371221  0.189740
C  0.021251  8.371221  0.632837
C  7.582124  9.823667  0.183073
C  13.876357  7.631998  0.194730
C  -1.214289  7.631998  0.495053
C  7.582124  8.371221  0.098635
C  13.876357  6.197900  0.180281
C  -1.214289  6.197900  0.494987
C  6.330357  7.631998  0.182752
C  12.623562  5.453610  0.187880
C  -2.463372  5.453610  0.463667
C  6.330357  6.197900  0.155519
C  12.623562  4.000000  0.203413
C  -2.463372  4.000000  0.411765
C  7.582124  12.724286  0.150972
C  13.876357  10.553000  0.117788
C  -1.214289  10.553000  0.552828
C  6.330357  12.029000  0.129921
C  12.623562  9.823667  0.237424
C  -2.463372  9.823667  0.405912
C  6.330357  10.553000  0.228131
C  12.623562  8.371221  0.227872
C  -2.463372  8.371221  0.446645
C  5.067250  9.823667  0.296772
C  -3.721000  7.631998  0.374219
C  5.067250  8.371221  0.272683
C  -3.721000  6.197900  0.371563
C  5.067250  12.724286  0.005306
C  3.815571  12.029000  0.157517
C  3.815571  10.553000  0.164967
C  2.546438  12.724286  0.258366
C  1.302141  12.029000  0.484417
C  6.330357  3.272000  0.125277
C  15.145562  12.724286  0.199977
C  0.021251  12.724286  0.280145
C  13.876357  12.029000  0.109172
C  -1.214289  12.029000  0.266039
C  12.623562  12.724286  -0.058556
C  6.330357  1.797813  0.004008
C  8.830644  1.797813  0.078194
C  11.361143  1.797813  -0.019133
C  10.098375  1.101000  -0.008216
C  7.582124  1.101000  0.011734
C  5.067250  1.101000  -0.119891
C  12.623562  1.101000  -0.159667
