142
frame	741
H  17.693000  13.826000  0.000000
H  19.858000  12.564000  0.000000
H  21.106000  10.363000  0.000000
H  22.366000  5.656000  0.000000
H  22.367000  8.165000  0.000000
H  19.852000  1.261000  0.000000
H  17.690000  -0.000000  0.000000
H  21.104000  3.459000  0.000000
H  2.530000  -0.005000  0.000000
H  15.160000  -0.002000  0.000000
H  0.000000  -0.000000  0.000000
H  -2.163000  1.262000  0.000000
H  -3.415000  3.463000  0.000000
H  -4.677000  8.168000  0.000000
H  -4.678000  5.662000  0.000000
H  -2.159000  12.565000  0.000000
H  10.109000  13.837000  0.000000
H  7.585000  13.838000  0.000000
H  5.062000  13.833000  0.000000
H  2.535000  13.828000  0.000000
H  15.163000  13.830000  0.000000
H  0.007000  13.825000  0.000000
H  -3.412000  10.366000  0.000000
H  12.635000  13.835000  0.000000
H  10.108000  -0.010000  0.000000
H  7.583000  -0.012000  0.000000
H  5.058000  -0.011000  0.000000
H  12.631000  -0.009000  0.000000
C  16.391568  10.553000  0.379717
C  16.391568  12.029000  0.235599
C  17.670751  12.724286  0.190550
C  17.670751  8.371221  0.537255
C  17.670751  9.823667  0.415788
C  18.905140  10.553000  0.462065
C  18.905140  12.029000  0.337979
C  17.670751  4.000000  0.409238
C  17.670751  5.453610  0.520237
C  18.905140  6.197900  0.709456
C  18.905140  7.631998  0.702401
C  20.154752  8.371221  0.516916
C  20.154752  9.823667  0.429860
C  18.905140  3.272000  0.481508
C  20.154752  4.000000  0.448797
C  20.154752  5.453610  0.519107
C  21.411000  6.197900  0.258467
C  21.411000  7.631998  0.254385
C  17.670751  1.101000  0.180624
C  18.905140  1.797813  0.352434
C  5.067250  5.453610  0.100890
C  5.067250  4.000000  0.092649
C  3.815571  3.272000  0.311547
C  3.815571  1.797813  0.195382
C  11.361143  3.272000  0.004957
C  2.546438  1.101000  0.103055
C  3.815571  7.631998  0.244191
C  3.815571  6.197900  0.230119
C  11.361143  7.631998  0.203916
C  2.546438  5.453610  0.420781
C  11.361143  6.197900  0.183990
C  2.546438  4.000000  0.512882
C  10.098375  5.453610  0.287239
C  16.391568  3.272000  0.382310
C  1.302141  3.272000  0.377202
C  10.098375  4.000000  0.140125
C  16.391568  1.797813  0.216447
C  1.302141  1.797813  0.232989
C  8.830644  3.272000  0.180960
C  15.145562  1.101000  0.085184
C  0.021251  1.101000  0.173523
C  11.361143  12.029000  0.146419
C  2.546438  9.823667  0.560932
C  11.361143  10.553000  0.088156
C  2.546438  8.371221  0.459510
C  10.098375  9.823667  0.204136
C  16.391568  7.631998  0.519349
C  1.302141  7.631998  0.538145
C  10.098375  8.371221  0.329470
C  16.391568  6.197900  0.521229
C  1.302141  6.197900  0.523264
C  15.145562  5.453610  0.398722
C  0.021251  5.453610  0.501000
C  8.830644  7.631998  0.510796
C  8.830644  6.197900  0.490173
C  15.145562  4.000000  0.489049
C  0.021251  4.000000  0.386804
C  7.582124  5.453610  0.308204
C  13.876357  3.272000  0.279622
C  -1.214289  3.272000  0.449491
C  7.582124  4.000000  0.128925
C  13.876357  1.797813  0.171364
C  -1.214289  1.797813  0.333394
C  10.098375  12.724286  0.136144
C  1.302141  10.553000  0.419979
C  8.830644  12.029000  0.140170
C  15.145562  9.823667  0.518322
C  0.021251  9.823667  0.409524
C  8.830644  10.553000  0.270366
C  15.145562  8.371221  0.428347
C  0.021251  8.371221  0.516144
C  7.582124  9.823667  0.214769
C  13.876357  7.631998  0.209026
C  -1.214289  7.631998  0.673980
C  7.582124  8.371221  0.363037
C  13.876357  6.197900  0.197884
C  -1.214289  6.197900  0.663153
C  6.330357  7.631998  0.238184
C  12.623562  5.453610  0.060812
C  -2.463372  5.453610  0.441536
C  6.330357  6.197900  0.226177
C  12.623562  4.000000  0.055007
C  -2.463372  4.000000  0.387407
C  7.582124  12.724286  0.141723
C  13.876357  10.553000  0.318267
C  -1.214289  10.553000  0.452906
C  6.330357  12.029000  0.180058
C  12.623562  9.823667  0.109849
C  -2.463372  9.823667  0.385308
C  6.330357  10.553000  0.119071
C  12.623562  8.371221  0.093033
C  -2.463372  8.371221  0.443274
C  5.067250  9.823667  0.161823
C  -3.721000  7.631998  0.140606
C  5.067250  8.371221  0.150305
C  -3.721000  6.197900  0.140904
C  5.067250  12.724286  0.259262
C  3.815571  12.029000  0.288280
C  3.815571  10.553000  0.393842
C  2.546438  12.724286  0.172215
C  1.302141  12.029000  0.265769
C  6.330357  3.272000  0.031711
C  15.145562  12.724286  0.114142
C  0.021251  12.724286  0.203279
C  13.876357  12.029000  0.211164
C  -1.214289  12.029000  0.348293
C  12.623562  12.724286  0.215856
C  6.330357  1.797813  0.045674
C  8.830644  1.797813  0.005903
C  11.361143  1.797813  0.054178
C  10.098375  1.101000  -0.000621
C  7.582124  1.101000  -0.013820
C  5.067250  1.101000  0.136725
C  12.623562  1.101000  0.134277
