142
frame	873
H  17.693000  13.826000  0.000000
H  19.858000  12.564000  0.000000
H  21.106000  10.363000  0.000000
H  22.366000  5.656000  0.000000
H  22.367000  8.165000  0.000000
H  19.852000  1.261000  0.000000
H  17.690000  -0.000000  0.000000
H  21.104000  3.459000  0.000000
H  2.530000  -0.005000  0.000000
H  15.160000  -0.002000  0.000000
H  0.000000  -0.000000  0.000000
H  -2.163000  1.262000  0.000000
H  -3.415000  3.463000  0.000000
H  -4.677000  8.168000  0.000000
H  -4.678000  5.662000  0.000000
H  -2.159000  12.565000  0.000000
H  10.109000  13.837000  0.000000
H  7.585000  13.838000  0.000000
H  5.062000  13.833000  0.000000
H  2.535000  13.828000  0.000000
H  15.163000  13.830000  0.000000
H  0.007000  13.825000  0.000000
H  -3.412000  10.366000  0.000000
H  12.635000  13.835000  0.000000
H  10.108000  -0.010000  0.000000
H  7.583000  -0.012000  0.000000
H  5.058000  -0.011000  0.000000
H  12.631000  -0.009000  0.000000
C  16.391568  10.553000  0.299719
C  16.391568  12.029000  0.204190
C  17.670751  12.724286  0.085589
C  17.670751  8.371221  0.163262
C  17.670751  9.823667  0.159489
C  18.905140  10.553000  -0.010107
C  18.905140  12.029000  -0.018051
C  17.670751  4.000000  0.140764
C  17.670751  5.453610  0.152783
C  18.905140  6.197900  -0.007672
C  18.905140  7.631998  -0.004429
C  20.154752  8.371221  0.064255
C  20.154752  9.823667  0.039274
C  18.905140  3.272000  0.006244
C  20.154752  4.000000  0.047473
C  20.154752  5.453610  0.069416
C  21.411000  6.197900  0.130787
C  21.411000  7.631998  0.130678
C  17.670751  1.101000  0.094561
C  18.905140  1.797813  -0.011226
C  5.067250  5.453610  0.618360
C  5.067250  4.000000  0.551416
C  3.815571  3.272000  0.413343
C  3.815571  1.797813  0.292006
C  11.361143  3.272000  0.529834
C  2.546438  1.101000  0.168884
C  3.815571  7.631998  0.462512
C  3.815571  6.197900  0.457176
C  11.361143  7.631998  0.850344
C  2.546438  5.453610  0.376577
C  11.361143  6.197900  0.827424
C  2.546438  4.000000  0.442107
C  10.098375  5.453610  0.787270
C  16.391568  3.272000  0.268028
C  1.302141  3.272000  0.296639
C  10.098375  4.000000  0.691391
C  16.391568  1.797813  0.169652
C  1.302141  1.797813  0.203067
C  8.830644  3.272000  0.489827
C  15.145562  1.101000  0.143587
C  0.021251  1.101000  0.083212
C  11.361143  12.029000  0.328066
C  2.546438  9.823667  0.483549
C  11.361143  10.553000  0.596192
C  2.546438  8.371221  0.412938
C  10.098375  9.823667  0.759786
C  16.391568  7.631998  0.345043
C  1.302141  7.631998  0.356233
C  10.098375  8.371221  0.833621
C  16.391568  6.197900  0.332069
C  1.302141  6.197900  0.335295
C  15.145562  5.453610  0.356696
C  0.021251  5.453610  0.150845
C  8.830644  7.631998  0.777861
C  8.830644  6.197900  0.751340
C  15.145562  4.000000  0.406857
C  0.021251  4.000000  0.151515
C  7.582124  5.453610  0.788657
C  13.876357  3.272000  0.397051
C  -1.214289  3.272000  -0.034980
C  7.582124  4.000000  0.698315
C  13.876357  1.797813  0.266072
C  -1.214289  1.797813  -0.044192
C  10.098375  12.724286  0.164974
C  1.302141  10.553000  0.325795
C  8.830644  12.029000  0.279807
C  15.145562  9.823667  0.453273
C  0.021251  9.823667  0.170783
C  8.830644  10.553000  0.570499
C  15.145562  8.371221  0.390745
C  0.021251  8.371221  0.147222
C  7.582124  9.823667  0.759568
C  13.876357  7.631998  0.471536
C  -1.214289  7.631998  -0.018614
C  7.582124  8.371221  0.822032
C  13.876357  6.197900  0.448122
C  -1.214289  6.197900  -0.030391
C  6.330357  7.631998  0.854918
C  12.623562  5.453610  0.582549
C  -2.463372  5.453610  0.008014
C  6.330357  6.197900  0.840858
C  12.623562  4.000000  0.542467
C  -2.463372  4.000000  -0.019528
C  7.582124  12.724286  0.182230
C  13.876357  10.553000  0.451014
C  -1.214289  10.553000  -0.034465
C  6.330357  12.029000  0.355872
C  12.623562  9.823667  0.589240
C  -2.463372  9.823667  -0.020341
C  6.330357  10.553000  0.612798
C  12.623562  8.371221  0.624640
C  -2.463372  8.371221  0.008773
C  5.067250  9.823667  0.605563
C  -3.721000  7.631998  0.046300
C  5.067250  8.371221  0.636888
C  -3.721000  6.197900  0.041390
C  5.067250  12.724286  0.269860
C  3.815571  12.029000  0.371789
C  3.815571  10.553000  0.469333
C  2.546438  12.724286  0.240087
C  1.302141  12.029000  0.237429
C  6.330357  3.272000  0.546224
C  15.145562  12.724286  0.179030
C  0.021251  12.724286  0.102377
C  13.876357  12.029000  0.323035
C  -1.214289  12.029000  -0.054651
C  12.623562  12.724286  0.236026
C  6.330357  1.797813  0.228984
C  8.830644  1.797813  0.153292
C  11.361143  1.797813  0.241387
C  10.098375  1.101000  0.033908
C  7.582124  1.101000  0.036797
C  5.067250  1.101000  0.150958
C  12.623562  1.101000  0.133121
