142
frame	813
H  17.693000  13.826000  0.000000
H  19.858000  12.564000  0.000000
H  21.106000  10.363000  0.000000
H  22.366000  5.656000  0.000000
H  22.367000  8.165000  0.000000
H  19.852000  1.261000  0.000000
H  17.690000  -0.000000  0.000000
H  21.104000  3.459000  0.000000
H  2.530000  -0.005000  0.000000
H  15.160000  -0.002000  0.000000
H  0.000000  -0.000000  0.000000
H  -2.163000  1.262000  0.000000
H  -3.415000  3.463000  0.000000
H  -4.677000  8.168000  0.000000
H  -4.678000  5.662000  0.000000
H  -2.159000  12.565000  0.000000
H  10.109000  13.837000  0.000000
H  7.585000  13.838000  0.000000
H  5.062000  13.833000  0.000000
H  2.535000  13.828000  0.000000
H  15.163000  13.830000  0.000000
H  0.007000  13.825000  0.000000
H  -3.412000  10.366000  0.000000
H  12.635000  13.835000  0.000000
H  10.108000  -0.010000  0.000000
H  7.583000  -0.012000  0.000000
H  5.058000  -0.011000  0.000000
H  12.631000  -0.009000  0.000000
C  16.391568  10.553000  0.167358
C  16.391568  12.029000  0.041870
C  17.670751  12.724286  0.114729
C  17.670751  8.371221  0.272199
C  17.670751  9.823667  0.109407
C  18.905140  10.553000  0.133593
C  18.905140  12.029000  0.138742
C  17.670751  4.000000  0.119435
C  17.670751  5.453610  0.265817
C  18.905140  6.197900  0.375021
C  18.905140  7.631998  0.371021
C  20.154752  8.371221  0.245797
C  20.154752  9.823667  0.216955
C  18.905140  3.272000  0.138469
C  20.154752  4.000000  0.229368
C  20.154752  5.453610  0.247504
C  21.411000  6.197900  0.142837
C  21.411000  7.631998  0.129583
C  17.670751  1.101000  0.098883
C  18.905140  1.797813  0.133587
C  5.067250  5.453610  0.750518
C  5.067250  4.000000  0.463714
C  3.815571  3.272000  0.392447
C  3.815571  1.797813  0.063465
C  11.361143  3.272000  0.286318
C  2.546438  1.101000  -0.071910
C  3.815571  7.631998  0.806599
C  3.815571  6.197900  0.802780
C  11.361143  7.631998  0.687723
C  2.546438  5.453610  0.636554
C  11.361143  6.197900  0.685813
C  2.546438  4.000000  0.437182
C  10.098375  5.453610  0.420148
C  16.391568  3.272000  0.149889
C  1.302141  3.272000  0.137371
C  10.098375  4.000000  0.304884
C  16.391568  1.797813  0.010108
C  1.302141  1.797813  -0.011163
C  8.830644  3.272000  0.312055
C  15.145562  1.101000  -0.082792
C  0.021251  1.101000  0.089388
C  11.361143  12.029000  0.235319
C  2.546438  9.823667  0.481110
C  11.361143  10.553000  0.360856
C  2.546438  8.371221  0.659726
C  10.098375  9.823667  0.368592
C  16.391568  7.631998  0.424995
C  1.302141  7.631998  0.455436
C  10.098375  8.371221  0.449398
C  16.391568  6.197900  0.420191
C  1.302141  6.197900  0.447714
C  15.145562  5.453610  0.605040
C  0.021251  5.453610  0.268683
C  8.830644  7.631998  0.248772
C  8.830644  6.197900  0.217758
C  15.145562  4.000000  0.434426
C  0.021251  4.000000  0.112977
C  7.582124  5.453610  0.409239
C  13.876357  3.272000  0.378384
C  -1.214289  3.272000  0.125281
C  7.582124  4.000000  0.318579
C  13.876357  1.797813  0.061638
C  -1.214289  1.797813  0.132363
C  10.098375  12.724286  0.212305
C  1.302141  10.553000  0.178187
C  8.830644  12.029000  0.304266
C  15.145562  9.823667  0.450089
C  0.021251  9.823667  0.117293
C  8.830644  10.553000  0.393283
C  15.145562  8.371221  0.615380
C  0.021251  8.371221  0.277099
C  7.582124  9.823667  0.386210
C  13.876357  7.631998  0.774844
C  -1.214289  7.631998  0.341331
C  7.582124  8.371221  0.469822
C  13.876357  6.197900  0.759484
C  -1.214289  6.197900  0.352974
C  6.330357  7.631998  0.727585
C  12.623562  5.453610  0.719787
C  -2.463372  5.453610  0.189421
C  6.330357  6.197900  0.700890
C  12.623562  4.000000  0.427650
C  -2.463372  4.000000  0.188005
C  7.582124  12.724286  0.241849
C  13.876357  10.553000  0.433035
C  -1.214289  10.553000  0.137309
C  6.330357  12.029000  0.268652
C  12.623562  9.823667  0.490835
C  -2.463372  9.823667  0.169716
C  6.330357  10.553000  0.396068
C  12.623562  8.371221  0.740347
C  -2.463372  8.371221  0.187611
C  5.067250  9.823667  0.528686
C  -3.721000  7.631998  0.023354
C  5.067250  8.371221  0.773778
C  -3.721000  6.197900  0.024694
C  5.067250  12.724286  0.177303
C  3.815571  12.029000  0.157515
C  3.815571  10.553000  0.457262
C  2.546438  12.724286  0.012028
C  1.302141  12.029000  0.057757
C  6.330357  3.272000  0.304426
C  15.145562  12.724286  -0.031195
C  0.021251  12.724286  0.131183
C  13.876357  12.029000  0.143352
C  -1.214289  12.029000  0.150261
C  12.623562  12.724286  0.126282
C  6.330357  1.797813  0.154772
C  8.830644  1.797813  0.177828
C  11.361143  1.797813  0.108268
C  10.098375  1.101000  0.073021
C  7.582124  1.101000  0.096595
C  5.067250  1.101000  0.046540
C  12.623562  1.101000  0.019658
