142
frame	607
H  17.693000  13.826000  0.000000
H  19.858000  12.564000  0.000000
H  21.106000  10.363000  0.000000
H  22.366000  5.656000  0.000000
H  22.367000  8.165000  0.000000
H  19.852000  1.261000  0.000000
H  17.690000  -0.000000  0.000000
H  21.104000  3.459000  0.000000
H  2.530000  -0.005000  0.000000
H  15.160000  -0.002000  0.000000
H  0.000000  -0.000000  0.000000
H  -2.163000  1.262000  0.000000
H  -3.415000  3.463000  0.000000
H  -4.677000  8.168000  0.000000
H  -4.678000  5.662000  0.000000
H  -2.159000  12.565000  0.000000
H  10.109000  13.837000  0.000000
H  7.585000  13.838000  0.000000
H  5.062000  13.833000  0.000000
H  2.535000  13.828000  0.000000
H  15.163000  13.830000  0.000000
H  0.007000  13.825000  0.000000
H  -3.412000  10.366000  0.000000
H  12.635000  13.835000  0.000000
H  10.108000  -0.010000  0.000000
H  7.583000  -0.012000  0.000000
H  5.058000  -0.011000  0.000000
H  12.631000  -0.009000  0.000000
C  16.391568  10.553000  0.159346
C  16.391568  12.029000  0.010726
C  17.670751  12.724286  0.005149
C  17.670751  8.371221  0.311938
C  17.670751  9.823667  0.120744
C  18.905140  10.553000  -0.060159
C  18.905140  12.029000  -0.037303
C  17.670751  4.000000  0.117233
C  17.670751  5.453610  0.289924
C  18.905140  6.197900  0.289643
C  18.905140  7.631998  0.286621
C  20.154752  8.371221  0.146749
C  20.154752  9.823667  -0.027556
C  18.905140  3.272000  -0.048012
C  20.154752  4.000000  -0.008029
C  20.154752  5.453610  0.155837
C  21.411000  6.197900  0.184689
C  21.411000  7.631998  0.171550
C  17.670751  1.101000  0.008060
C  18.905140  1.797813  -0.034053
C  5.067250  5.453610  0.082108
C  5.067250  4.000000  -0.069347
C  3.815571  3.272000  0.017674
C  3.815571  1.797813  -0.067801
C  11.361143  3.272000  -0.102245
C  2.546438  1.101000  -0.087888
C  3.815571  7.631998  0.214635
C  3.815571  6.197900  0.206317
C  11.361143  7.631998  0.031892
C  2.546438  5.453610  0.315899
C  11.361143  6.197900  0.019099
C  2.546438  4.000000  0.234381
C  10.098375  5.453610  -0.315146
C  16.391568  3.272000  0.163205
C  1.302141  3.272000  0.141956
C  10.098375  4.000000  -0.252340
C  16.391568  1.797813  0.005422
C  1.302141  1.797813  -0.010726
C  8.830644  3.272000  -0.285016
C  15.145562  1.101000  -0.080239
C  0.021251  1.101000  0.002573
C  11.361143  12.029000  -0.078237
C  2.546438  9.823667  0.267394
C  11.361143  10.553000  -0.034488
C  2.546438  8.371221  0.320924
C  10.098375  9.823667  -0.203936
C  16.391568  7.631998  0.357118
C  1.302141  7.631998  0.333320
C  10.098375  8.371221  -0.313778
C  16.391568  6.197900  0.354169
C  1.302141  6.197900  0.324238
C  15.145562  5.453610  0.315534
C  0.021251  5.453610  0.260456
C  8.830644  7.631998  -0.624046
C  8.830644  6.197900  -0.633645
C  15.145562  4.000000  0.231146
C  0.021251  4.000000  0.088401
C  7.582124  5.453610  -0.309329
C  13.876357  3.272000  0.021090
C  -1.214289  3.272000  -0.092676
C  7.582124  4.000000  -0.260605
C  13.876357  1.797813  -0.078862
C  -1.214289  1.797813  -0.060960
C  10.098375  12.724286  -0.149557
C  1.302141  10.553000  0.168948
C  8.830644  12.029000  -0.281378
C  15.145562  9.823667  0.255131
C  0.021251  9.823667  0.101742
C  8.830644  10.553000  -0.220428
C  15.145562  8.371221  0.325820
C  0.021251  8.371221  0.284915
C  7.582124  9.823667  -0.198160
C  13.876357  7.631998  0.197704
C  -1.214289  7.631998  0.250556
C  7.582124  8.371221  -0.283270
C  13.876357  6.197900  0.189675
C  -1.214289  6.197900  0.248838
C  6.330357  7.631998  0.049036
C  12.623562  5.453610  0.067449
C  -2.463372  5.453610  0.107727
C  6.330357  6.197900  0.040015
C  12.623562  4.000000  -0.075348
C  -2.463372  4.000000  -0.052223
C  7.582124  12.724286  -0.121081
C  13.876357  10.553000  0.058246
C  -1.214289  10.553000  -0.084799
C  6.330357  12.029000  -0.042855
C  12.623562  9.823667  -0.021561
C  -2.463372  9.823667  -0.065100
C  6.330357  10.553000  -0.042950
C  12.623562  8.371221  0.080221
C  -2.463372  8.371221  0.110219
C  5.067250  9.823667  -0.012155
C  -3.721000  7.631998  0.081826
C  5.067250  8.371221  0.101669
C  -3.721000  6.197900  0.087127
C  5.067250  12.724286  0.089860
C  3.815571  12.029000  0.001532
C  3.815571  10.553000  0.080157
C  2.546438  12.724286  -0.024896
C  1.302141  12.029000  0.027709
C  6.330357  3.272000  -0.096651
C  15.145562  12.724286  -0.057093
C  0.021251  12.724286  0.033121
C  13.876357  12.029000  -0.022315
C  -1.214289  12.029000  -0.037754
C  12.623562  12.724286  0.053699
C  6.330357  1.797813  -0.151800
C  8.830644  1.797813  -0.389740
C  11.361143  1.797813  -0.152971
C  10.098375  1.101000  -0.263916
C  7.582124  1.101000  -0.247725
C  5.067250  1.101000  -0.010700
C  12.623562  1.101000  -0.012797
