142
frame	948
H  17.693000  13.826000  0.000000
H  19.858000  12.564000  0.000000
H  21.106000  10.363000  0.000000
H  22.366000  5.656000  0.000000
H  22.367000  8.165000  0.000000
H  19.852000  1.261000  0.000000
H  17.690000  -0.000000  0.000000
H  21.104000  3.459000  0.000000
H  2.530000  -0.005000  0.000000
H  15.160000  -0.002000  0.000000
H  0.000000  -0.000000  0.000000
H  -2.163000  1.262000  0.000000
H  -3.415000  3.463000  0.000000
H  -4.677000  8.168000  0.000000
H  -4.678000  5.662000  0.000000
H  -2.159000  12.565000  0.000000
H  10.109000  13.837000  0.000000
H  7.585000  13.838000  0.000000
H  5.062000  13.833000  0.000000
H  2.535000  13.828000  0.000000
H  15.163000  13.830000  0.000000
H  0.007000  13.825000  0.000000
H  -3.412000  10.366000  0.000000
H  12.635000  13.835000  0.000000
H  10.108000  -0.010000  0.000000
H  7.583000  -0.012000  0.000000
H  5.058000  -0.011000  0.000000
H  12.631000  -0.009000  0.000000
C  16.391568  10.553000  0.145023
C  16.391568  12.029000  0.095624
C  17.670751  12.724286  0.100044
C  17.670751  8.371221  0.050939
C  17.670751  9.823667  0.196751
C  18.905140  10.553000  0.284428
C  18.905140  12.029000  0.184531
C  17.670751  4.000000  0.185921
C  17.670751  5.453610  0.052553
C  18.905140  6.197900  0.052387
C  18.905140  7.631998  0.042318
C  20.154752  8.371221  0.217613
C  20.154752  9.823667  0.327973
C  18.905140  3.272000  0.284837
C  20.154752  4.000000  0.339324
C  20.154752  5.453610  0.218033
C  21.411000  6.197900  0.296551
C  21.411000  7.631998  0.290660
C  17.670751  1.101000  0.086926
C  18.905140  1.797813  0.196938
C  5.067250  5.453610  0.583181
C  5.067250  4.000000  0.448210
C  3.815571  3.272000  0.171956
C  3.815571  1.797813  0.063297
C  11.361143  3.272000  0.593126
C  2.546438  1.101000  -0.060763
C  3.815571  7.631998  0.412618
C  3.815571  6.197900  0.404212
C  11.361143  7.631998  0.922482
C  2.546438  5.453610  0.202448
C  11.361143  6.197900  0.905890
C  2.546438  4.000000  0.164478
C  10.098375  5.453610  0.890097
C  16.391568  3.272000  0.125602
C  1.302141  3.272000  0.134429
C  10.098375  4.000000  0.813242
C  16.391568  1.797813  0.060195
C  1.302141  1.797813  0.063606
C  8.830644  3.272000  0.770813
C  15.145562  1.101000  -0.077797
C  0.021251  1.101000  0.072041
C  11.361143  12.029000  0.505052
C  2.546438  9.823667  0.197758
C  11.361143  10.553000  0.657792
C  2.546438  8.371221  0.207604
C  10.098375  9.823667  0.866444
C  16.391568  7.631998  0.101376
C  1.302141  7.631998  0.094149
C  10.098375  8.371221  0.932788
C  16.391568  6.197900  0.106395
C  1.302141  6.197900  0.098811
C  15.145562  5.453610  0.214927
C  0.021251  5.453610  0.048996
C  8.830644  7.631998  0.794603
C  8.830644  6.197900  0.773377
C  15.145562  4.000000  0.176449
C  0.021251  4.000000  0.205358
C  7.582124  5.453610  0.898073
C  13.876357  3.272000  0.167607
C  -1.214289  3.272000  0.259527
C  7.582124  4.000000  0.813036
C  13.876357  1.797813  0.068656
C  -1.214289  1.797813  0.178557
C  10.098375  12.724286  0.368231
C  1.302141  10.553000  0.153627
C  8.830644  12.029000  0.521533
C  15.145562  9.823667  0.197013
C  0.021251  9.823667  0.190368
C  8.830644  10.553000  0.840807
C  15.145562  8.371221  0.223872
C  0.021251  8.371221  0.031695
C  7.582124  9.823667  0.874260
C  13.876357  7.631998  0.396710
C  -1.214289  7.631998  -0.014291
C  7.582124  8.371221  0.929008
C  13.876357  6.197900  0.399799
C  -1.214289  6.197900  -0.011277
C  6.330357  7.631998  0.922761
C  12.623562  5.453610  0.587298
C  -2.463372  5.453610  0.139815
C  6.330357  6.197900  0.912490
C  12.623562  4.000000  0.440082
C  -2.463372  4.000000  0.275226
C  7.582124  12.724286  0.382904
C  13.876357  10.553000  0.203525
C  -1.214289  10.553000  0.257260
C  6.330357  12.029000  0.521943
C  12.623562  9.823667  0.474803
C  -2.463372  9.823667  0.267698
C  6.330357  10.553000  0.683210
C  12.623562  8.371221  0.604296
C  -2.463372  8.371221  0.123484
C  5.067250  9.823667  0.486965
C  -3.721000  7.631998  0.164113
C  5.067250  8.371221  0.615844
C  -3.721000  6.197900  0.169595
C  5.067250  12.724286  0.246859
C  3.815571  12.029000  0.143559
C  3.815571  10.553000  0.225889
C  2.546438  12.724286  0.007112
C  1.302141  12.029000  0.110812
C  6.330357  3.272000  0.608558
C  15.145562  12.724286  -0.020128
C  0.021251  12.724286  0.113124
C  13.876357  12.029000  0.137214
C  -1.214289  12.029000  0.191096
C  12.623562  12.724286  0.222651
C  6.330357  1.797813  0.410608
C  8.830644  1.797813  0.401078
C  11.361143  1.797813  0.390413
C  10.098375  1.101000  0.219861
C  7.582124  1.101000  0.233655
C  5.067250  1.101000  0.133865
C  12.623562  1.101000  0.131325
