142
frame	273
H  17.693000  13.826000  0.000000
H  19.858000  12.564000  0.000000
H  21.106000  10.363000  0.000000
H  22.366000  5.656000  0.000000
H  22.367000  8.165000  0.000000
H  19.852000  1.261000  0.000000
H  17.690000  -0.000000  0.000000
H  21.104000  3.459000  0.000000
H  2.530000  -0.005000  0.000000
H  15.160000  -0.002000  0.000000
H  0.000000  -0.000000  0.000000
H  -2.163000  1.262000  0.000000
H  -3.415000  3.463000  0.000000
H  -4.677000  8.168000  0.000000
H  -4.678000  5.662000  0.000000
H  -2.159000  12.565000  0.000000
H  10.109000  13.837000  0.000000
H  7.585000  13.838000  0.000000
H  5.062000  13.833000  0.000000
H  2.535000  13.828000  0.000000
H  15.163000  13.830000  0.000000
H  0.007000  13.825000  0.000000
H  -3.412000  10.366000  0.000000
H  12.635000  13.835000  0.000000
H  10.108000  -0.010000  0.000000
H  7.583000  -0.012000  0.000000
H  5.058000  -0.011000  0.000000
H  12.631000  -0.009000  0.000000
C  16.391568  10.553000  -0.253286
C  16.391568  12.029000  -0.255017
C  17.670751  12.724286  -0.272824
C  17.670751  8.371221  -0.195214
C  17.670751  9.823667  -0.091797
C  18.905140  10.553000  0.015557
C  18.905140  12.029000  -0.134388
C  17.670751  4.000000  -0.091010
C  17.670751  5.453610  -0.173972
C  18.905140  6.197900  -0.172862
C  18.905140  7.631998  -0.176757
C  20.154752  8.371221  0.085479
C  20.154752  9.823667  0.106963
C  18.905140  3.272000  0.005676
C  20.154752  4.000000  0.118283
C  20.154752  5.453610  0.086518
C  21.411000  6.197900  0.303435
C  21.411000  7.631998  0.281079
C  17.670751  1.101000  -0.268473
C  18.905140  1.797813  -0.123679
C  5.067250  5.453610  -0.675526
C  5.067250  4.000000  -0.519407
C  3.815571  3.272000  -0.404315
C  3.815571  1.797813  -0.173740
C  11.361143  3.272000  -0.387537
C  2.546438  1.101000  -0.131158
C  3.815571  7.631998  -0.493772
C  3.815571  6.197900  -0.507164
C  11.361143  7.631998  -0.865043
C  2.546438  5.453610  -0.404587
C  11.361143  6.197900  -0.874771
C  2.546438  4.000000  -0.447459
C  10.098375  5.453610  -0.775295
C  16.391568  3.272000  -0.265735
C  1.302141  3.272000  -0.296104
C  10.098375  4.000000  -0.622290
C  16.391568  1.797813  -0.286797
C  1.302141  1.797813  -0.293515
C  8.830644  3.272000  -0.525773
C  15.145562  1.101000  -0.130960
C  0.021251  1.101000  -0.275968
C  11.361143  12.029000  -0.001457
C  2.546438  9.823667  -0.393281
C  11.361143  10.553000  -0.316577
C  2.546438  8.371221  -0.384107
C  10.098375  9.823667  -0.558915
C  16.391568  7.631998  -0.272440
C  1.302141  7.631998  -0.308940
C  10.098375  8.371221  -0.743836
C  16.391568  6.197900  -0.270420
C  1.302141  6.197900  -0.316861
C  15.145562  5.453610  -0.384068
C  0.021251  5.453610  -0.253954
C  8.830644  7.631998  -0.715757
C  8.830644  6.197900  -0.733096
C  15.145562  4.000000  -0.419081
C  0.021251  4.000000  -0.126434
C  7.582124  5.453610  -0.788145
C  13.876357  3.272000  -0.375455
C  -1.214289  3.272000  -0.008542
C  7.582124  4.000000  -0.628693
C  13.876357  1.797813  -0.170559
C  -1.214289  1.797813  -0.152051
C  10.098375  12.724286  -0.007860
C  1.302141  10.553000  -0.251489
C  8.830644  12.029000  -0.085077
C  15.145562  9.823667  -0.390411
C  0.021251  9.823667  -0.115092
C  8.830644  10.553000  -0.429273
C  15.145562  8.371221  -0.373617
C  0.021251  8.371221  -0.236401
C  7.582124  9.823667  -0.557192
C  13.876357  7.631998  -0.472689
C  -1.214289  7.631998  -0.249234
C  7.582124  8.371221  -0.744552
C  13.876357  6.197900  -0.493860
C  -1.214289  6.197900  -0.251598
C  6.330357  7.631998  -0.865221
C  12.623562  5.453610  -0.672964
C  -2.463372  5.453610  -0.016969
C  6.330357  6.197900  -0.890120
C  12.623562  4.000000  -0.508493
C  -2.463372  4.000000  0.043999
C  7.582124  12.724286  0.008782
C  13.876357  10.553000  -0.345410
C  -1.214289  10.553000  -0.010468
C  6.330357  12.029000  0.028089
C  12.623562  9.823667  -0.466925
C  -2.463372  9.823667  0.038880
C  6.330357  10.553000  -0.303825
C  12.623562  8.371221  -0.638173
C  -2.463372  8.371221  -0.013841
C  5.067250  9.823667  -0.455013
C  -3.721000  7.631998  0.182529
C  5.067250  8.371221  -0.647545
C  -3.721000  6.197900  0.170681
C  5.067250  12.724286  0.075348
C  3.815571  12.029000  -0.078695
C  3.815571  10.553000  -0.339349
C  2.546438  12.724286  -0.053196
C  1.302141  12.029000  -0.249607
C  6.330357  3.272000  -0.384535
C  15.145562  12.724286  -0.080982
C  0.021251  12.724286  -0.252922
C  13.876357  12.029000  -0.100329
C  -1.214289  12.029000  -0.146860
C  12.623562  12.724286  0.041865
C  6.330357  1.797813  -0.107337
C  8.830644  1.797813  -0.217116
C  11.361143  1.797813  -0.111874
C  10.098375  1.101000  -0.143956
C  7.582124  1.101000  -0.140360
C  5.067250  1.101000  -0.054728
C  12.623562  1.101000  -0.061365
