142
frame	1000
H  17.693000  13.826000  0.000000
H  19.858000  12.564000  0.000000
H  21.106000  10.363000  0.000000
H  22.366000  5.656000  0.000000
H  22.367000  8.165000  0.000000
H  19.852000  1.261000  0.000000
H  17.690000  -0.000000  0.000000
H  21.104000  3.459000  0.000000
H  2.530000  -0.005000  0.000000
H  15.160000  -0.002000  0.000000
H  0.000000  -0.000000  0.000000
H  -2.163000  1.262000  0.000000
H  -3.415000  3.463000  0.000000
H  -4.677000  8.168000  0.000000
H  -4.678000  5.662000  0.000000
H  -2.159000  12.565000  0.000000
H  10.109000  13.837000  0.000000
H  7.585000  13.838000  0.000000
H  5.062000  13.833000  0.000000
H  2.535000  13.828000  0.000000
H  15.163000  13.830000  0.000000
H  0.007000  13.825000  0.000000
H  -3.412000  10.366000  0.000000
H  12.635000  13.835000  0.000000
H  10.108000  -0.010000  0.000000
H  7.583000  -0.012000  0.000000
H  5.058000  -0.011000  0.000000
H  12.631000  -0.009000  0.000000
C  16.391568  10.553000  -0.026699
C  16.391568  12.029000  -0.050691
C  17.670751  12.724286  -0.080173
C  17.670751  8.371221  0.286323
C  17.670751  9.823667  0.071461
C  18.905140  10.553000  -0.025189
C  18.905140  12.029000  -0.148926
C  17.670751  4.000000  0.053926
C  17.670751  5.453610  0.298641
C  18.905140  6.197900  0.302029
C  18.905140  7.631998  0.296671
C  20.154752  8.371221  0.232948
C  20.154752  9.823667  0.113644
C  18.905140  3.272000  -0.000879
C  20.154752  4.000000  0.130325
C  20.154752  5.453610  0.244998
C  21.411000  6.197900  0.312411
C  21.411000  7.631998  0.311295
C  17.670751  1.101000  -0.065820
C  18.905140  1.797813  -0.129632
C  5.067250  5.453610  0.500321
C  5.067250  4.000000  0.476324
C  3.815571  3.272000  0.249484
C  3.815571  1.797813  0.091817
C  11.361143  3.272000  0.399228
C  2.546438  1.101000  0.004640
C  3.815571  7.631998  0.507815
C  3.815571  6.197900  0.498611
C  11.361143  7.631998  0.599365
C  2.546438  5.453610  0.242844
C  11.361143  6.197900  0.580234
C  2.546438  4.000000  0.091241
C  10.098375  5.453610  0.736540
C  16.391568  3.272000  -0.039114
C  1.302141  3.272000  -0.070508
C  10.098375  4.000000  0.568210
C  16.391568  1.797813  -0.057229
C  1.302141  1.797813  -0.075640
C  8.830644  3.272000  0.526961
C  15.145562  1.101000  -0.001350
C  0.021251  1.101000  -0.087735
C  11.361143  12.029000  0.263464
C  2.546438  9.823667  0.116870
C  11.361143  10.553000  0.471884
C  2.546438  8.371221  0.250953
C  10.098375  9.823667  0.630134
C  16.391568  7.631998  0.339184
C  1.302141  7.631998  0.328534
C  10.098375  8.371221  0.771062
C  16.391568  6.197900  0.339153
C  1.302141  6.197900  0.316122
C  15.145562  5.453610  0.250265
C  0.021251  5.453610  0.240120
C  8.830644  7.631998  0.940637
C  8.830644  6.197900  0.933925
C  15.145562  4.000000  0.095210
C  0.021251  4.000000  0.009340
C  7.582124  5.453610  0.754209
C  13.876357  3.272000  0.234283
C  -1.214289  3.272000  -0.078950
C  7.582124  4.000000  0.554721
C  13.876357  1.797813  0.093380
C  -1.214289  1.797813  -0.142110
C  10.098375  12.724286  0.304820
C  1.302141  10.553000  -0.044544
C  8.830644  12.029000  0.503441
C  15.145562  9.823667  0.127611
C  0.021251  9.823667  0.026169
C  8.830644  10.553000  0.616656
C  15.145562  8.371221  0.271276
C  0.021251  8.371221  0.252588
C  7.582124  9.823667  0.637493
C  13.876357  7.631998  0.506545
C  -1.214289  7.631998  0.249016
C  7.582124  8.371221  0.762992
C  13.876357  6.197900  0.489512
C  -1.214289  6.197900  0.231910
C  6.330357  7.631998  0.600359
C  12.623562  5.453610  0.505302
C  -2.463372  5.453610  0.177212
C  6.330357  6.197900  0.591056
C  12.623562  4.000000  0.475264
C  -2.463372  4.000000  0.057286
C  7.582124  12.724286  0.311002
C  13.876357  10.553000  0.283483
C  -1.214289  10.553000  -0.077053
C  6.330357  12.029000  0.283545
C  12.623562  9.823667  0.518923
C  -2.463372  9.823667  0.049834
C  6.330357  10.553000  0.485111
C  12.623562  8.371221  0.538229
C  -2.463372  8.371221  0.158152
C  5.067250  9.823667  0.525615
C  -3.721000  7.631998  0.200154
C  5.067250  8.371221  0.534969
C  -3.721000  6.197900  0.209024
C  5.067250  12.724286  0.095861
C  3.815571  12.029000  0.176140
C  3.815571  10.553000  0.290106
C  2.546438  12.724286  0.071934
C  1.302141  12.029000  -0.046249
C  6.330357  3.272000  0.408726
C  15.145562  12.724286  0.025368
C  0.021251  12.724286  -0.083069
C  13.876357  12.029000  0.144328
C  -1.214289  12.029000  -0.168689
C  12.623562  12.724286  0.065459
C  6.330357  1.797813  0.169125
C  8.830644  1.797813  0.382106
C  11.361143  1.797813  0.170924
C  10.098375  1.101000  0.188695
C  7.582124  1.101000  0.167629
C  5.067250  1.101000  -0.010117
C  12.623562  1.101000  -0.024336
