142
frame	268
H  17.693000  13.826000  0.000000
H  19.858000  12.564000  0.000000
H  21.106000  10.363000  0.000000
H  22.366000  5.656000  0.000000
H  22.367000  8.165000  0.000000
H  19.852000  1.261000  0.000000
H  17.690000  -0.000000  0.000000
H  21.104000  3.459000  0.000000
H  2.530000  -0.005000  0.000000
H  15.160000  -0.002000  0.000000
H  0.000000  -0.000000  0.000000
H  -2.163000  1.262000  0.000000
H  -3.415000  3.463000  0.000000
H  -4.677000  8.168000  0.000000
H  -4.678000  5.662000  0.000000
H  -2.159000  12.565000  0.000000
H  10.109000  13.837000  0.000000
H  7.585000  13.838000  0.000000
H  5.062000  13.833000  0.000000
H  2.535000  13.828000  0.000000
H  15.163000  13.830000  0.000000
H  0.007000  13.825000  0.000000
H  -3.412000  10.366000  0.000000
H  12.635000  13.835000  0.000000
H  10.108000  -0.010000  0.000000
H  7.583000  -0.012000  0.000000
H  5.058000  -0.011000  0.000000
H  12.631000  -0.009000  0.000000
C  16.391568  10.553000  -0.270914
C  16.391568  12.029000  -0.283272
C  17.670751  12.724286  -0.242978
C  17.670751  8.371221  -0.138735
C  17.670751  9.823667  -0.131503
C  18.905140  10.553000  -0.037204
C  18.905140  12.029000  -0.124517
C  17.670751  4.000000  -0.134421
C  17.670751  5.453610  -0.116858
C  18.905140  6.197900  -0.109905
C  18.905140  7.631998  -0.114649
C  20.154752  8.371221  0.114536
C  20.154752  9.823667  0.121042
C  18.905140  3.272000  -0.034480
C  20.154752  4.000000  0.123986
C  20.154752  5.453610  0.115390
C  21.411000  6.197900  0.313203
C  21.411000  7.631998  0.293932
C  17.670751  1.101000  -0.238788
C  18.905140  1.797813  -0.119137
C  5.067250  5.453610  -0.717322
C  5.067250  4.000000  -0.515215
C  3.815571  3.272000  -0.373391
C  3.815571  1.797813  -0.151438
C  11.361143  3.272000  -0.428180
C  2.546438  1.101000  -0.160226
C  3.815571  7.631998  -0.548499
C  3.815571  6.197900  -0.557838
C  11.361143  7.631998  -0.858094
C  2.546438  5.453610  -0.386618
C  11.361143  6.197900  -0.866227
C  2.546438  4.000000  -0.409354
C  10.098375  5.453610  -0.773966
C  16.391568  3.272000  -0.287121
C  1.302141  3.272000  -0.315213
C  10.098375  4.000000  -0.604146
C  16.391568  1.797813  -0.312078
C  1.302141  1.797813  -0.317298
C  8.830644  3.272000  -0.555001
C  15.145562  1.101000  -0.161062
C  0.021251  1.101000  -0.253485
C  11.361143  12.029000  0.005252
C  2.546438  9.823667  -0.353104
C  11.361143  10.553000  -0.357346
C  2.546438  8.371221  -0.371298
C  10.098375  9.823667  -0.544719
C  16.391568  7.631998  -0.194832
C  1.302141  7.631998  -0.227300
C  10.098375  8.371221  -0.737361
C  16.391568  6.197900  -0.193162
C  1.302141  6.197900  -0.238636
C  15.145562  5.453610  -0.371943
C  0.021251  5.453610  -0.193266
C  8.830644  7.631998  -0.718706
C  8.830644  6.197900  -0.735359
C  15.145562  4.000000  -0.377084
C  0.021251  4.000000  -0.168413
C  7.582124  5.453610  -0.783552
C  13.876357  3.272000  -0.348074
C  -1.214289  3.272000  -0.054931
C  7.582124  4.000000  -0.614935
C  13.876357  1.797813  -0.148902
C  -1.214289  1.797813  -0.143784
C  10.098375  12.724286  -0.005544
C  1.302141  10.553000  -0.274681
C  8.830644  12.029000  -0.070887
C  15.145562  9.823667  -0.352100
C  0.021251  9.823667  -0.154167
C  8.830644  10.553000  -0.456382
C  15.145562  8.371221  -0.357835
C  0.021251  8.371221  -0.170240
C  7.582124  9.823667  -0.548375
C  13.876357  7.631998  -0.531102
C  -1.214289  7.631998  -0.188097
C  7.582124  8.371221  -0.733833
C  13.876357  6.197900  -0.546000
C  -1.214289  6.197900  -0.194495
C  6.330357  7.631998  -0.861605
C  12.623562  5.453610  -0.710770
C  -2.463372  5.453610  0.017037
C  6.330357  6.197900  -0.880975
C  12.623562  4.000000  -0.503907
C  -2.463372  4.000000  0.059859
C  7.582124  12.724286  0.008708
C  13.876357  10.553000  -0.312197
C  -1.214289  10.553000  -0.055391
C  6.330357  12.029000  0.037880
C  12.623562  9.823667  -0.469474
C  -2.463372  9.823667  0.047251
C  6.330357  10.553000  -0.342268
C  12.623562  8.371221  -0.675445
C  -2.463372  8.371221  0.022521
C  5.067250  9.823667  -0.451923
C  -3.721000  7.631998  0.194607
C  5.067250  8.371221  -0.686944
C  -3.721000  6.197900  0.179790
C  5.067250  12.724286  0.055056
C  3.815571  12.029000  -0.056004
C  3.815571  10.553000  -0.307589
C  2.546438  12.724286  -0.086161
C  1.302141  12.029000  -0.272290
C  6.330357  3.272000  -0.424132
C  15.145562  12.724286  -0.113088
C  0.021251  12.724286  -0.227327
C  13.876357  12.029000  -0.082578
C  -1.214289  12.029000  -0.143016
C  12.623562  12.724286  0.023171
C  6.330357  1.797813  -0.096797
C  8.830644  1.797813  -0.200971
C  11.361143  1.797813  -0.101627
C  10.098375  1.101000  -0.147715
C  7.582124  1.101000  -0.144542
C  5.067250  1.101000  -0.072955
C  12.623562  1.101000  -0.086071
