142
frame	485
H  17.693000  13.826000  0.000000
H  19.858000  12.564000  0.000000
H  21.106000  10.363000  0.000000
H  22.366000  5.656000  0.000000
H  22.367000  8.165000  0.000000
H  19.852000  1.261000  0.000000
H  17.690000  -0.000000  0.000000
H  21.104000  3.459000  0.000000
H  2.530000  -0.005000  0.000000
H  15.160000  -0.002000  0.000000
H  0.000000  -0.000000  0.000000
H  -2.163000  1.262000  0.000000
H  -3.415000  3.463000  0.000000
H  -4.677000  8.168000  0.000000
H  -4.678000  5.662000  0.000000
H  -2.159000  12.565000  0.000000
H  10.109000  13.837000  0.000000
H  7.585000  13.838000  0.000000
H  5.062000  13.833000  0.000000
H  2.535000  13.828000  0.000000
H  15.163000  13.830000  0.000000
H  0.007000  13.825000  0.000000
H  -3.412000  10.366000  0.000000
H  12.635000  13.835000  0.000000
H  10.108000  -0.010000  0.000000
H  7.583000  -0.012000  0.000000
H  5.058000  -0.011000  0.000000
H  12.631000  -0.009000  0.000000
C  16.391568  10.553000  -0.350929
C  16.391568  12.029000  -0.136037
C  17.670751  12.724286  -0.071925
C  17.670751  8.371221  -0.158709
C  17.670751  9.823667  -0.226739
C  18.905140  10.553000  -0.082506
C  18.905140  12.029000  -0.064505
C  17.670751  4.000000  -0.230956
C  17.670751  5.453610  -0.160470
C  18.905140  6.197900  -0.087251
C  18.905140  7.631998  -0.096399
C  20.154752  8.371221  -0.005018
C  20.154752  9.823667  0.055267
C  18.905140  3.272000  -0.072963
C  20.154752  4.000000  0.061720
C  20.154752  5.453610  -0.010415
C  21.411000  6.197900  0.145461
C  21.411000  7.631998  0.133576
C  17.670751  1.101000  -0.050012
C  18.905140  1.797813  -0.032972
C  5.067250  5.453610  -0.517493
C  5.067250  4.000000  -0.273361
C  3.815571  3.272000  -0.211904
C  3.815571  1.797813  -0.120969
C  11.361143  3.272000  -0.121513
C  2.546438  1.101000  -0.058885
C  3.815571  7.631998  -0.653293
C  3.815571  6.197900  -0.656531
C  11.361143  7.631998  -0.447547
C  2.546438  5.453610  -0.560668
C  11.361143  6.197900  -0.468660
C  2.546438  4.000000  -0.503222
C  10.098375  5.453610  -0.115451
C  16.391568  3.272000  -0.365656
C  1.302141  3.272000  -0.388808
C  10.098375  4.000000  -0.141878
C  16.391568  1.797813  -0.164934
C  1.302141  1.797813  -0.133458
C  8.830644  3.272000  -0.000519
C  15.145562  1.101000  -0.079878
C  0.021251  1.101000  -0.058110
C  11.361143  12.029000  -0.040777
C  2.546438  9.823667  -0.470945
C  11.361143  10.553000  -0.069641
C  2.546438  8.371221  -0.540052
C  10.098375  9.823667  -0.080034
C  16.391568  7.631998  -0.333039
C  1.302141  7.631998  -0.373107
C  10.098375  8.371221  -0.087186
C  16.391568  6.197900  -0.329031
C  1.302141  6.197900  -0.378470
C  15.145562  5.453610  -0.534138
C  0.021251  5.453610  -0.215555
C  8.830644  7.631998  0.046283
C  8.830644  6.197900  0.026184
C  15.145562  4.000000  -0.484915
C  0.021251  4.000000  -0.263616
C  7.582124  5.453610  -0.132164
C  13.876357  3.272000  -0.203927
C  -1.214289  3.272000  -0.109262
C  7.582124  4.000000  -0.137949
C  13.876357  1.797813  -0.114728
C  -1.214289  1.797813  -0.067632
C  10.098375  12.724286  0.112126
C  1.302141  10.553000  -0.363189
C  8.830644  12.029000  0.123419
C  15.145562  9.823667  -0.444729
C  0.021251  9.823667  -0.263419
C  8.830644  10.553000  0.051647
C  15.145562  8.371221  -0.513955
C  0.021251  8.371221  -0.214842
C  7.582124  9.823667  -0.095325
C  13.876357  7.631998  -0.625290
C  -1.214289  7.631998  -0.182797
C  7.582124  8.371221  -0.109980
C  13.876357  6.197900  -0.652318
C  -1.214289  6.197900  -0.182612
C  6.330357  7.631998  -0.496349
C  12.623562  5.453610  -0.493268
C  -2.463372  5.453610  -0.094109
C  6.330357  6.197900  -0.516059
C  12.623562  4.000000  -0.253597
C  -2.463372  4.000000  -0.014083
C  7.582124  12.724286  0.114167
C  13.876357  10.553000  -0.169785
C  -1.214289  10.553000  -0.111940
C  6.330357  12.029000  -0.041783
C  12.623562  9.823667  -0.211197
C  -2.463372  9.823667  -0.023556
C  6.330357  10.553000  -0.073667
C  12.623562  8.371221  -0.469075
C  -2.463372  8.371221  -0.098620
C  5.067250  9.823667  -0.213501
C  -3.721000  7.631998  0.035234
C  5.067250  8.371221  -0.498355
C  -3.721000  6.197900  0.034232
C  5.067250  12.724286  -0.093886
C  3.815571  12.029000  -0.040899
C  3.815571  10.553000  -0.174401
C  2.546438  12.724286  -0.001920
C  1.302141  12.029000  -0.106020
C  6.330357  3.272000  -0.139684
C  15.145562  12.724286  -0.025107
C  0.021251  12.724286  -0.032895
C  13.876357  12.029000  -0.060190
C  -1.214289  12.029000  -0.068000
C  12.623562  12.724286  -0.120521
C  6.330357  1.797813  -0.158290
C  8.830644  1.797813  0.006488
C  11.361143  1.797813  -0.143060
C  10.098375  1.101000  -0.020245
C  7.582124  1.101000  -0.018976
C  5.067250  1.101000  -0.211455
C  12.623562  1.101000  -0.212855
