142
frame	39
H  17.693000  13.826000  0.000000
H  19.858000  12.564000  0.000000
H  21.106000  10.363000  0.000000
H  22.366000  5.656000  0.000000
H  22.367000  8.165000  0.000000
H  19.852000  1.261000  0.000000
H  17.690000  -0.000000  0.000000
H  21.104000  3.459000  0.000000
H  2.530000  -0.005000  0.000000
H  15.160000  -0.002000  0.000000
H  0.000000  -0.000000  0.000000
H  -2.163000  1.262000  0.000000
H  -3.415000  3.463000  0.000000
H  -4.677000  8.168000  0.000000
H  -4.678000  5.662000  0.000000
H  -2.159000  12.565000  0.000000
H  10.109000  13.837000  0.000000
H  7.585000  13.838000  0.000000
H  5.062000  13.833000  0.000000
H  2.535000  13.828000  0.000000
H  15.163000  13.830000  0.000000
H  0.007000  13.825000  0.000000
H  -3.412000  10.366000  0.000000
H  12.635000  13.835000  0.000000
H  10.108000  -0.010000  0.000000
H  7.583000  -0.012000  0.000000
H  5.058000  -0.011000  0.000000
H  12.631000  -0.009000  0.000000
C  16.391568  10.553000  0.033056
C  16.391568  12.029000  0.016245
C  17.670751  12.724286  0.018078
C  17.670751  8.371221  0.067307
C  17.670751  9.823667  0.054715
C  18.905140  10.553000  0.073516
C  18.905140  12.029000  0.049321
C  17.670751  4.000000  0.053799
C  17.670751  5.453610  0.066836
C  18.905140  6.197900  0.107917
C  18.905140  7.631998  0.105114
C  20.154752  8.371221  0.143250
C  20.154752  9.823667  0.122908
C  18.905140  3.272000  0.082329
C  20.154752  4.000000  0.137883
C  20.154752  5.453610  0.151929
C  21.411000  6.197900  0.209037
C  21.411000  7.631998  0.204901
C  17.670751  1.101000  0.015968
C  18.905140  1.797813  0.061119
C  5.067250  5.453610  0.195917
C  5.067250  4.000000  0.004318
C  3.815571  3.272000  -0.040809
C  3.815571  1.797813  -0.035848
C  11.361143  3.272000  0.066454
C  2.546438  1.101000  -0.018728
C  3.815571  7.631998  0.063511
C  3.815571  6.197900  0.049219
C  11.361143  7.631998  0.083356
C  2.546438  5.453610  -0.001855
C  11.361143  6.197900  0.032412
C  2.546438  4.000000  0.011907
C  10.098375  5.453610  -0.262677
C  16.391568  3.272000  0.017876
C  1.302141  3.272000  0.032797
C  10.098375  4.000000  -0.015901
C  16.391568  1.797813  -0.002993
C  1.302141  1.797813  0.005728
C  8.830644  3.272000  0.112155
C  15.145562  1.101000  -0.035538
C  0.021251  1.101000  0.013912
C  11.361143  12.029000  0.040269
C  2.546438  9.823667  0.049724
C  11.361143  10.553000  0.111213
C  2.546438  8.371221  0.016583
C  10.098375  9.823667  0.062685
C  16.391568  7.631998  0.027271
C  1.302141  7.631998  0.047932
C  10.098375  8.371221  -0.224898
C  16.391568  6.197900  0.022092
C  1.302141  6.197900  0.041751
C  15.145562  5.453610  -0.031257
C  0.021251  5.453610  0.063617
C  8.830644  7.631998  -0.790674
C  8.830644  6.197900  -0.837036
C  15.145562  4.000000  -0.014937
C  0.021251  4.000000  0.050239
C  7.582124  5.453610  -0.245208
C  13.876357  3.272000  -0.069220
C  -1.214289  3.272000  0.057500
C  7.582124  4.000000  -0.004439
C  13.876357  1.797813  -0.058519
C  -1.214289  1.797813  0.041768
C  10.098375  12.724286  0.021994
C  1.302141  10.553000  0.063915
C  8.830644  12.029000  0.115765
C  15.145562  9.823667  0.009909
C  0.021251  9.823667  0.062093
C  8.830644  10.553000  0.170496
C  15.145562  8.371221  -0.019968
C  0.021251  8.371221  0.069087
C  7.582124  9.823667  0.046342
C  13.876357  7.631998  0.009405
C  -1.214289  7.631998  0.075066
C  7.582124  8.371221  -0.218094
C  13.876357  6.197900  0.013328
C  -1.214289  6.197900  0.074905
C  6.330357  7.631998  0.078461
C  12.623562  5.453610  0.152685
C  -2.463372  5.453610  0.084807
C  6.330357  6.197900  0.074065
C  12.623562  4.000000  -0.022412
C  -2.463372  4.000000  0.080165
C  7.582124  12.724286  0.041202
C  13.876357  10.553000  -0.026384
C  -1.214289  10.553000  0.059728
C  6.330357  12.029000  0.086600
C  12.623562  9.823667  0.003877
C  -2.463372  9.823667  0.071175
C  6.330357  10.553000  0.162503
C  12.623562  8.371221  0.162858
C  -2.463372  8.371221  0.080091
C  5.067250  9.823667  0.064190
C  -3.721000  7.631998  0.096039
C  5.067250  8.371221  0.222414
C  -3.721000  6.197900  0.100185
C  5.067250  12.724286  0.043815
C  3.815571  12.029000  0.050265
C  3.815571  10.553000  0.020395
C  2.546438  12.724286  0.055323
C  1.302141  12.029000  0.050849
C  6.330357  3.272000  0.083939
C  15.145562  12.724286  0.008697
C  0.021251  12.724286  0.040030
C  13.876357  12.029000  0.002699
C  -1.214289  12.029000  0.045915
C  12.623562  12.724286  0.000929
C  6.330357  1.797813  -0.030375
C  8.830644  1.797813  0.003340
C  11.361143  1.797813  -0.048191
C  10.098375  1.101000  -0.112367
C  7.582124  1.101000  -0.104333
C  5.067250  1.101000  -0.074121
C  12.623562  1.101000  -0.094576
