142
frame	982
H  17.693000  13.826000  0.000000
H  19.858000  12.564000  0.000000
H  21.106000  10.363000  0.000000
H  22.366000  5.656000  0.000000
H  22.367000  8.165000  0.000000
H  19.852000  1.261000  0.000000
H  17.690000  -0.000000  0.000000
H  21.104000  3.459000  0.000000
H  2.530000  -0.005000  0.000000
H  15.160000  -0.002000  0.000000
H  0.000000  -0.000000  0.000000
H  -2.163000  1.262000  0.000000
H  -3.415000  3.463000  0.000000
H  -4.677000  8.168000  0.000000
H  -4.678000  5.662000  0.000000
H  -2.159000  12.565000  0.000000
H  10.109000  13.837000  0.000000
H  7.585000  13.838000  0.000000
H  5.062000  13.833000  0.000000
H  2.535000  13.828000  0.000000
H  15.163000  13.830000  0.000000
H  0.007000  13.825000  0.000000
H  -3.412000  10.366000  0.000000
H  12.635000  13.835000  0.000000
H  10.108000  -0.010000  0.000000
H  7.583000  -0.012000  0.000000
H  5.058000  -0.011000  0.000000
H  12.631000  -0.009000  0.000000
C  16.391568  10.553000  0.003922
C  16.391568  12.029000  -0.001154
C  17.670751  12.724286  0.052938
C  17.670751  8.371221  0.238281
C  17.670751  9.823667  0.107798
C  18.905140  10.553000  0.022687
C  18.905140  12.029000  0.061189
C  17.670751  4.000000  0.119386
C  17.670751  5.453610  0.224433
C  18.905140  6.197900  0.367431
C  18.905140  7.631998  0.364406
C  20.154752  8.371221  0.273095
C  20.154752  9.823667  0.097095
C  18.905140  3.272000  0.029608
C  20.154752  4.000000  0.125332
C  20.154752  5.453610  0.279674
C  21.411000  6.197900  0.236240
C  21.411000  7.631998  0.228256
C  17.670751  1.101000  0.047060
C  18.905140  1.797813  0.080376
C  5.067250  5.453610  0.673883
C  5.067250  4.000000  0.515296
C  3.815571  3.272000  0.186222
C  3.815571  1.797813  0.003046
C  11.361143  3.272000  0.542918
C  2.546438  1.101000  -0.074810
C  3.815571  7.631998  0.490427
C  3.815571  6.197900  0.478331
C  11.361143  7.631998  0.707431
C  2.546438  5.453610  0.213138
C  11.361143  6.197900  0.700264
C  2.546438  4.000000  0.069755
C  10.098375  5.453610  0.750423
C  16.391568  3.272000  -0.011946
C  1.302141  3.272000  -0.025004
C  10.098375  4.000000  0.678027
C  16.391568  1.797813  -0.011009
C  1.302141  1.797813  -0.022932
C  8.830644  3.272000  0.681682
C  15.145562  1.101000  -0.066683
C  0.021251  1.101000  0.050925
C  11.361143  12.029000  0.310828
C  2.546438  9.823667  0.096681
C  11.361143  10.553000  0.607121
C  2.546438  8.371221  0.230252
C  10.098375  9.823667  0.751268
C  16.391568  7.631998  0.131710
C  1.302141  7.631998  0.120655
C  10.098375  8.371221  0.767168
C  16.391568  6.197900  0.122337
C  1.302141  6.197900  0.114153
C  15.145562  5.453610  0.201855
C  0.021251  5.453610  0.183761
C  8.830644  7.631998  0.800574
C  8.830644  6.197900  0.792699
C  15.145562  4.000000  0.058789
C  0.021251  4.000000  0.060460
C  7.582124  5.453610  0.748044
C  13.876357  3.272000  0.194512
C  -1.214289  3.272000  -0.013457
C  7.582124  4.000000  0.700648
C  13.876357  1.797813  -0.007533
C  -1.214289  1.797813  0.044706
C  10.098375  12.724286  0.357567
C  1.302141  10.553000  -0.000967
C  8.830644  12.029000  0.602078
C  15.145562  9.823667  0.091279
C  0.021251  9.823667  0.078954
C  8.830644  10.553000  0.780002
C  15.145562  8.371221  0.224076
C  0.021251  8.371221  0.202019
C  7.582124  9.823667  0.760333
C  13.876357  7.631998  0.508670
C  -1.214289  7.631998  0.307986
C  7.582124  8.371221  0.784769
C  13.876357  6.197900  0.501625
C  -1.214289  6.197900  0.325848
C  6.330357  7.631998  0.731940
C  12.623562  5.453610  0.670446
C  -2.463372  5.453610  0.197932
C  6.330357  6.197900  0.720665
C  12.623562  4.000000  0.511107
C  -2.463372  4.000000  0.044109
C  7.582124  12.724286  0.375329
C  13.876357  10.553000  0.231121
C  -1.214289  10.553000  -0.031486
C  6.330357  12.029000  0.329961
C  12.623562  9.823667  0.567541
C  -2.463372  9.823667  0.020897
C  6.330357  10.553000  0.617761
C  12.623562  8.371221  0.697221
C  -2.463372  8.371221  0.192537
C  5.067250  9.823667  0.553623
C  -3.721000  7.631998  0.116045
C  5.067250  8.371221  0.685238
C  -3.721000  6.197900  0.118242
C  5.067250  12.724286  0.083554
C  3.815571  12.029000  0.081821
C  3.815571  10.553000  0.237264
C  2.546438  12.724286  -0.002417
C  1.302141  12.029000  0.011261
C  6.330357  3.272000  0.538432
C  15.145562  12.724286  -0.032325
C  0.021251  12.724286  0.062359
C  13.876357  12.029000  0.051572
C  -1.214289  12.029000  0.031988
C  12.623562  12.724286  0.042801
C  6.330357  1.797813  0.225614
C  8.830644  1.797813  0.477968
C  11.361143  1.797813  0.225491
C  10.098375  1.101000  0.238995
C  7.582124  1.101000  0.242441
C  5.067250  1.101000  -0.027346
C  12.623562  1.101000  -0.041775
