142
frame	381
H  17.693000  13.826000  0.000000
H  19.858000  12.564000  0.000000
H  21.106000  10.363000  0.000000
H  22.366000  5.656000  0.000000
H  22.367000  8.165000  0.000000
H  19.852000  1.261000  0.000000
H  17.690000  -0.000000  0.000000
H  21.104000  3.459000  0.000000
H  2.530000  -0.005000  0.000000
H  15.160000  -0.002000  0.000000
H  0.000000  -0.000000  0.000000
H  -2.163000  1.262000  0.000000
H  -3.415000  3.463000  0.000000
H  -4.677000  8.168000  0.000000
H  -4.678000  5.662000  0.000000
H  -2.159000  12.565000  0.000000
H  10.109000  13.837000  0.000000
H  7.585000  13.838000  0.000000
H  5.062000  13.833000  0.000000
H  2.535000  13.828000  0.000000
H  15.163000  13.830000  0.000000
H  0.007000  13.825000  0.000000
H  -3.412000  10.366000  0.000000
H  12.635000  13.835000  0.000000
H  10.108000  -0.010000  0.000000
H  7.583000  -0.012000  0.000000
H  5.058000  -0.011000  0.000000
H  12.631000  -0.009000  0.000000
C  16.391568  10.553000  -0.419986
C  16.391568  12.029000  -0.324433
C  17.670751  12.724286  -0.202102
C  17.670751  8.371221  -0.524560
C  17.670751  9.823667  -0.499999
C  18.905140  10.553000  -0.301305
C  18.905140  12.029000  -0.155996
C  17.670751  4.000000  -0.502116
C  17.670751  5.453610  -0.541603
C  18.905140  6.197900  -0.457946
C  18.905140  7.631998  -0.431084
C  20.154752  8.371221  -0.254721
C  20.154752  9.823667  -0.118515
C  18.905140  3.272000  -0.294014
C  20.154752  4.000000  -0.097482
C  20.154752  5.453610  -0.244191
C  21.411000  6.197900  -0.087543
C  21.411000  7.631998  -0.093692
C  17.670751  1.101000  -0.214278
C  18.905140  1.797813  -0.151688
C  5.067250  5.453610  -0.628659
C  5.067250  4.000000  -0.581798
C  3.815571  3.272000  -0.406367
C  3.815571  1.797813  -0.198833
C  11.361143  3.272000  -0.536194
C  2.546438  1.101000  -0.251089
C  3.815571  7.631998  -0.585045
C  3.815571  6.197900  -0.593238
C  11.361143  7.631998  -0.288470
C  2.546438  5.453610  -0.518067
C  11.361143  6.197900  -0.294413
C  2.546438  4.000000  -0.406648
C  10.098375  5.453610  -0.267286
C  16.391568  3.272000  -0.434062
C  1.302141  3.272000  -0.498938
C  10.098375  4.000000  -0.357969
C  16.391568  1.797813  -0.347432
C  1.302141  1.797813  -0.370441
C  8.830644  3.272000  -0.383096
C  15.145562  1.101000  -0.223154
C  0.021251  1.101000  -0.224029
C  11.361143  12.029000  -0.219698
C  2.546438  9.823667  -0.364675
C  11.361143  10.553000  -0.446779
C  2.546438  8.371221  -0.495597
C  10.098375  9.823667  -0.288303
C  16.391568  7.631998  -0.531653
C  1.302141  7.631998  -0.576909
C  10.098375  8.371221  -0.240424
C  16.391568  6.197900  -0.524486
C  1.302141  6.197900  -0.596993
C  15.145562  5.453610  -0.480117
C  0.021251  5.453610  -0.620015
C  8.830644  7.631998  -0.131243
C  8.830644  6.197900  -0.131813
C  15.145562  4.000000  -0.363038
C  0.021251  4.000000  -0.585837
C  7.582124  5.453610  -0.278961
C  13.876357  3.272000  -0.389688
C  -1.214289  3.272000  -0.351163
C  7.582124  4.000000  -0.349928
C  13.876357  1.797813  -0.167727
C  -1.214289  1.797813  -0.194197
C  10.098375  12.724286  -0.216382
C  1.302141  10.553000  -0.469549
C  8.830644  12.029000  -0.357717
C  15.145562  9.823667  -0.339005
C  0.021251  9.823667  -0.564821
C  8.830644  10.553000  -0.277128
C  15.145562  8.371221  -0.472629
C  0.021251  8.371221  -0.609909
C  7.582124  9.823667  -0.290174
C  13.876357  7.631998  -0.560363
C  -1.214289  7.631998  -0.514567
C  7.582124  8.371221  -0.256986
C  13.876357  6.197900  -0.557450
C  -1.214289  6.197900  -0.514322
C  6.330357  7.631998  -0.307536
C  12.623562  5.453610  -0.605287
C  -2.463372  5.453610  -0.342374
C  6.330357  6.197900  -0.313705
C  12.623562  4.000000  -0.572472
C  -2.463372  4.000000  -0.186852
C  7.582124  12.724286  -0.183514
C  13.876357  10.553000  -0.322179
C  -1.214289  10.553000  -0.353437
C  6.330357  12.029000  -0.186897
C  12.623562  9.823667  -0.522765
C  -2.463372  9.823667  -0.192038
C  6.330357  10.553000  -0.440073
C  12.623562  8.371221  -0.587979
C  -2.463372  8.371221  -0.339437
C  5.067250  9.823667  -0.524852
C  -3.721000  7.631998  -0.213714
C  5.067250  8.371221  -0.600173
C  -3.721000  6.197900  -0.208551
C  5.067250  12.724286  0.050464
C  3.815571  12.029000  -0.113430
C  3.815571  10.553000  -0.333937
C  2.546438  12.724286  -0.169878
C  1.302141  12.029000  -0.334001
C  6.330357  3.272000  -0.532778
C  15.145562  12.724286  -0.185482
C  0.021251  12.724286  -0.205270
C  13.876357  12.029000  -0.108288
C  -1.214289  12.029000  -0.182696
C  12.623562  12.724286  0.026590
C  6.330357  1.797813  -0.304747
C  8.830644  1.797813  -0.497509
C  11.361143  1.797813  -0.315452
C  10.098375  1.101000  -0.351189
C  7.582124  1.101000  -0.340266
C  5.067250  1.101000  -0.063710
C  12.623562  1.101000  -0.071364
