142
frame	444
H  17.693000  13.826000  0.000000
H  19.858000  12.564000  0.000000
H  21.106000  10.363000  0.000000
H  22.366000  5.656000  0.000000
H  22.367000  8.165000  0.000000
H  19.852000  1.261000  0.000000
H  17.690000  -0.000000  0.000000
H  21.104000  3.459000  0.000000
H  2.530000  -0.005000  0.000000
H  15.160000  -0.002000  0.000000
H  0.000000  -0.000000  0.000000
H  -2.163000  1.262000  0.000000
H  -3.415000  3.463000  0.000000
H  -4.677000  8.168000  0.000000
H  -4.678000  5.662000  0.000000
H  -2.159000  12.565000  0.000000
H  10.109000  13.837000  0.000000
H  7.585000  13.838000  0.000000
H  5.062000  13.833000  0.000000
H  2.535000  13.828000  0.000000
H  15.163000  13.830000  0.000000
H  0.007000  13.825000  0.000000
H  -3.412000  10.366000  0.000000
H  12.635000  13.835000  0.000000
H  10.108000  -0.010000  0.000000
H  7.583000  -0.012000  0.000000
H  5.058000  -0.011000  0.000000
H  12.631000  -0.009000  0.000000
C  16.391568  10.553000  -0.443965
C  16.391568  12.029000  -0.379695
C  17.670751  12.724286  -0.174879
C  17.670751  8.371221  -0.476890
C  17.670751  9.823667  -0.340826
C  18.905140  10.553000  -0.123276
C  18.905140  12.029000  -0.094599
C  17.670751  4.000000  -0.345282
C  17.670751  5.453610  -0.491892
C  18.905140  6.197900  -0.188792
C  18.905140  7.631998  -0.193665
C  20.154752  8.371221  0.106914
C  20.154752  9.823667  0.085436
C  18.905140  3.272000  -0.109539
C  20.154752  4.000000  0.105392
C  20.154752  5.453610  0.107435
C  21.411000  6.197900  0.276440
C  21.411000  7.631998  0.262521
C  17.670751  1.101000  -0.184653
C  18.905140  1.797813  -0.093157
C  5.067250  5.453610  -0.340995
C  5.067250  4.000000  -0.488249
C  3.815571  3.272000  -0.604555
C  3.815571  1.797813  -0.457552
C  11.361143  3.272000  -0.156535
C  2.546438  1.101000  -0.420397
C  3.815571  7.631998  -0.429425
C  3.815571  6.197900  -0.436732
C  11.361143  7.631998  -0.278136
C  2.546438  5.453610  -0.566678
C  11.361143  6.197900  -0.289506
C  2.546438  4.000000  -0.606964
C  10.098375  5.453610  -0.297745
C  16.391568  3.272000  -0.449924
C  1.302141  3.272000  -0.485477
C  10.098375  4.000000  -0.156941
C  16.391568  1.797813  -0.393527
C  1.302141  1.797813  -0.416029
C  8.830644  3.272000  0.048844
C  15.145562  1.101000  -0.415569
C  0.021251  1.101000  -0.196198
C  11.361143  12.029000  0.083999
C  2.546438  9.823667  -0.578915
C  11.361143  10.553000  -0.095209
C  2.546438  8.371221  -0.550907
C  10.098375  9.823667  -0.084718
C  16.391568  7.631998  -0.647700
C  1.302141  7.631998  -0.719265
C  10.098375  8.371221  -0.275018
C  16.391568  6.197900  -0.648690
C  1.302141  6.197900  -0.717283
C  15.145562  5.453610  -0.509825
C  0.021251  5.453610  -0.540727
C  8.830644  7.631998  -0.467018
C  8.830644  6.197900  -0.490658
C  15.145562  4.000000  -0.591638
C  0.021251  4.000000  -0.385396
C  7.582124  5.453610  -0.299999
C  13.876357  3.272000  -0.598905
C  -1.214289  3.272000  -0.160590
C  7.582124  4.000000  -0.176887
C  13.876357  1.797813  -0.449155
C  -1.214289  1.797813  -0.103162
C  10.098375  12.724286  0.127112
C  1.302141  10.553000  -0.454471
C  8.830644  12.029000  0.187548
C  15.145562  9.823667  -0.556105
C  0.021251  9.823667  -0.385862
C  8.830644  10.553000  0.132830
C  15.145562  8.371221  -0.506289
C  0.021251  8.371221  -0.542548
C  7.582124  9.823667  -0.092394
C  13.876357  7.631998  -0.377629
C  -1.214289  7.631998  -0.271655
C  7.582124  8.371221  -0.267192
C  13.876357  6.197900  -0.388888
C  -1.214289  6.197900  -0.273556
C  6.330357  7.631998  -0.269477
C  12.623562  5.453610  -0.318218
C  -2.463372  5.453610  0.024234
C  6.330357  6.197900  -0.291532
C  12.623562  4.000000  -0.470624
C  -2.463372  4.000000  0.028751
C  7.582124  12.724286  0.141800
C  13.876357  10.553000  -0.544584
C  -1.214289  10.553000  -0.153752
C  6.330357  12.029000  0.088566
C  12.623562  9.823667  -0.410420
C  -2.463372  9.823667  0.018655
C  6.330357  10.553000  -0.101280
C  12.623562  8.371221  -0.299182
C  -2.463372  8.371221  0.013489
C  5.067250  9.823667  -0.435103
C  -3.721000  7.631998  0.126406
C  5.067250  8.371221  -0.320048
C  -3.721000  6.197900  0.132679
C  5.067250  12.724286  0.004632
C  3.815571  12.029000  -0.370176
C  3.815571  10.553000  -0.572018
C  2.546438  12.724286  -0.336146
C  1.302141  12.029000  -0.369110
C  6.330357  3.272000  -0.174887
C  15.145562  12.724286  -0.373504
C  0.021251  12.724286  -0.177512
C  13.876357  12.029000  -0.383967
C  -1.214289  12.029000  -0.103599
C  12.623562  12.724286  -0.018812
C  6.330357  1.797813  -0.012802
C  8.830644  1.797813  0.077563
C  11.361143  1.797813  -0.012385
C  10.098375  1.101000  0.019259
C  7.582124  1.101000  0.015713
C  5.067250  1.101000  -0.095318
C  12.623562  1.101000  -0.107737
