142
frame	814
H  17.693000  13.826000  0.000000
H  19.858000  12.564000  0.000000
H  21.106000  10.363000  0.000000
H  22.366000  5.656000  0.000000
H  22.367000  8.165000  0.000000
H  19.852000  1.261000  0.000000
H  17.690000  -0.000000  0.000000
H  21.104000  3.459000  0.000000
H  2.530000  -0.005000  0.000000
H  15.160000  -0.002000  0.000000
H  0.000000  -0.000000  0.000000
H  -2.163000  1.262000  0.000000
H  -3.415000  3.463000  0.000000
H  -4.677000  8.168000  0.000000
H  -4.678000  5.662000  0.000000
H  -2.159000  12.565000  0.000000
H  10.109000  13.837000  0.000000
H  7.585000  13.838000  0.000000
H  5.062000  13.833000  0.000000
H  2.535000  13.828000  0.000000
H  15.163000  13.830000  0.000000
H  0.007000  13.825000  0.000000
H  -3.412000  10.366000  0.000000
H  12.635000  13.835000  0.000000
H  10.108000  -0.010000  0.000000
H  7.583000  -0.012000  0.000000
H  5.058000  -0.011000  0.000000
H  12.631000  -0.009000  0.000000
C  16.391568  10.553000  0.159357
C  16.391568  12.029000  0.033815
C  17.670751  12.724286  0.120581
C  17.670751  8.371221  0.263202
C  17.670751  9.823667  0.109480
C  18.905140  10.553000  0.137434
C  18.905140  12.029000  0.145583
C  17.670751  4.000000  0.120259
C  17.670751  5.453610  0.253702
C  18.905140  6.197900  0.368219
C  18.905140  7.631998  0.364162
C  20.154752  8.371221  0.245965
C  20.154752  9.823667  0.219906
C  18.905140  3.272000  0.143419
C  20.154752  4.000000  0.232332
C  20.154752  5.453610  0.248598
C  21.411000  6.197900  0.137796
C  21.411000  7.631998  0.123539
C  17.670751  1.101000  0.105807
C  18.905140  1.797813  0.138544
C  5.067250  5.453610  0.753553
C  5.067250  4.000000  0.463690
C  3.815571  3.272000  0.394524
C  3.815571  1.797813  0.066507
C  11.361143  3.272000  0.288464
C  2.546438  1.101000  -0.077702
C  3.815571  7.631998  0.818534
C  3.815571  6.197900  0.817658
C  11.361143  7.631998  0.690711
C  2.546438  5.453610  0.635373
C  11.361143  6.197900  0.689753
C  2.546438  4.000000  0.442226
C  10.098375  5.453610  0.424153
C  16.391568  3.272000  0.142773
C  1.302141  3.272000  0.128417
C  10.098375  4.000000  0.304019
C  16.391568  1.797813  0.001982
C  1.302141  1.797813  -0.020175
C  8.830644  3.272000  0.312041
C  15.145562  1.101000  -0.088972
C  0.021251  1.101000  0.096572
C  11.361143  12.029000  0.238396
C  2.546438  9.823667  0.486220
C  11.361143  10.553000  0.363004
C  2.546438  8.371221  0.659610
C  10.098375  9.823667  0.367619
C  16.391568  7.631998  0.415830
C  1.302141  7.631998  0.447554
C  10.098375  8.371221  0.453296
C  16.391568  6.197900  0.411060
C  1.302141  6.197900  0.438822
C  15.145562  5.453610  0.603078
C  0.021251  5.453610  0.257670
C  8.830644  7.631998  0.253724
C  8.830644  6.197900  0.223731
C  15.145562  4.000000  0.439310
C  0.021251  4.000000  0.114016
C  7.582124  5.453610  0.412289
C  13.876357  3.272000  0.379315
C  -1.214289  3.272000  0.129401
C  7.582124  4.000000  0.317530
C  13.876357  1.797813  0.064581
C  -1.214289  1.797813  0.139582
C  10.098375  12.724286  0.218259
C  1.302141  10.553000  0.169324
C  8.830644  12.029000  0.308253
C  15.145562  9.823667  0.454981
C  0.021251  9.823667  0.118378
C  8.830644  10.553000  0.392229
C  15.145562  8.371221  0.614549
C  0.021251  8.371221  0.265117
C  7.582124  9.823667  0.386090
C  13.876357  7.631998  0.788038
C  -1.214289  7.631998  0.336198
C  7.582124  8.371221  0.473788
C  13.876357  6.197900  0.774624
C  -1.214289  6.197900  0.346807
C  6.330357  7.631998  0.730573
C  12.623562  5.453610  0.722696
C  -2.463372  5.453610  0.190321
C  6.330357  6.197900  0.704887
C  12.623562  4.000000  0.427728
C  -2.463372  4.000000  0.191061
C  7.582124  12.724286  0.247862
C  13.876357  10.553000  0.434966
C  -1.214289  10.553000  0.142401
C  6.330357  12.029000  0.269573
C  12.623562  9.823667  0.491858
C  -2.463372  9.823667  0.172816
C  6.330357  10.553000  0.398920
C  12.623562  8.371221  0.743332
C  -2.463372  8.371221  0.188583
C  5.067250  9.823667  0.528617
C  -3.721000  7.631998  0.016413
C  5.067250  8.371221  0.777909
C  -3.721000  6.197900  0.017723
C  5.067250  12.724286  0.181287
C  3.815571  12.029000  0.161502
C  3.815571  10.553000  0.460318
C  2.546438  12.724286  0.006247
C  1.302141  12.029000  0.047894
C  6.330357  3.272000  0.307298
C  15.145562  12.724286  -0.036338
C  0.021251  12.724286  0.140272
C  13.876357  12.029000  0.145340
C  -1.214289  12.029000  0.156342
C  12.623562  12.724286  0.129348
C  6.330357  1.797813  0.156747
C  8.830644  1.797813  0.181881
C  11.361143  1.797813  0.111379
C  10.098375  1.101000  0.078002
C  7.582124  1.101000  0.103756
C  5.067250  1.101000  0.050456
C  12.623562  1.101000  0.024733
