142
frame	731
H  17.693000  13.826000  0.000000
H  19.858000  12.564000  0.000000
H  21.106000  10.363000  0.000000
H  22.366000  5.656000  0.000000
H  22.367000  8.165000  0.000000
H  19.852000  1.261000  0.000000
H  17.690000  -0.000000  0.000000
H  21.104000  3.459000  0.000000
H  2.530000  -0.005000  0.000000
H  15.160000  -0.002000  0.000000
H  0.000000  -0.000000  0.000000
H  -2.163000  1.262000  0.000000
H  -3.415000  3.463000  0.000000
H  -4.677000  8.168000  0.000000
H  -4.678000  5.662000  0.000000
H  -2.159000  12.565000  0.000000
H  10.109000  13.837000  0.000000
H  7.585000  13.838000  0.000000
H  5.062000  13.833000  0.000000
H  2.535000  13.828000  0.000000
H  15.163000  13.830000  0.000000
H  0.007000  13.825000  0.000000
H  -3.412000  10.366000  0.000000
H  12.635000  13.835000  0.000000
H  10.108000  -0.010000  0.000000
H  7.583000  -0.012000  0.000000
H  5.058000  -0.011000  0.000000
H  12.631000  -0.009000  0.000000
C  16.391568  10.553000  0.426879
C  16.391568  12.029000  0.259640
C  17.670751  12.724286  0.244376
C  17.670751  8.371221  0.552766
C  17.670751  9.823667  0.516385
C  18.905140  10.553000  0.551554
C  18.905140  12.029000  0.361856
C  17.670751  4.000000  0.516185
C  17.670751  5.453610  0.546692
C  18.905140  6.197900  0.687038
C  18.905140  7.631998  0.674182
C  20.154752  8.371221  0.563012
C  20.154752  9.823667  0.470271
C  18.905140  3.272000  0.566847
C  20.154752  4.000000  0.490679
C  20.154752  5.453610  0.560919
C  21.411000  6.197900  0.296180
C  21.411000  7.631998  0.301120
C  17.670751  1.101000  0.239169
C  18.905140  1.797813  0.368872
C  5.067250  5.453610  0.151336
C  5.067250  4.000000  0.116949
C  3.815571  3.272000  0.265024
C  3.815571  1.797813  0.160482
C  11.361143  3.272000  0.067377
C  2.546438  1.101000  0.147709
C  3.815571  7.631998  0.233266
C  3.815571  6.197900  0.210221
C  11.361143  7.631998  0.179317
C  2.546438  5.453610  0.347273
C  11.361143  6.197900  0.147872
C  2.546438  4.000000  0.387971
C  10.098375  5.453610  0.241009
C  16.391568  3.272000  0.418698
C  1.302141  3.272000  0.422739
C  10.098375  4.000000  0.071573
C  16.391568  1.797813  0.247608
C  1.302141  1.797813  0.255458
C  8.830644  3.272000  0.134203
C  15.145562  1.101000  0.145863
C  0.021251  1.101000  0.240833
C  11.361143  12.029000  0.115391
C  2.546438  9.823667  0.443730
C  11.361143  10.553000  0.124365
C  2.546438  8.371221  0.381169
C  10.098375  9.823667  0.136891
C  16.391568  7.631998  0.455159
C  1.302141  7.631998  0.463104
C  10.098375  8.371221  0.285045
C  16.391568  6.197900  0.452273
C  1.302141  6.197900  0.460226
C  15.145562  5.453610  0.328299
C  0.021251  5.453610  0.523829
C  8.830644  7.631998  0.378018
C  8.830644  6.197900  0.359538
C  15.145562  4.000000  0.375936
C  0.021251  4.000000  0.504335
C  7.582124  5.453610  0.241159
C  13.876357  3.272000  0.226510
C  -1.214289  3.272000  0.532916
C  7.582124  4.000000  0.079098
C  13.876357  1.797813  0.135072
C  -1.214289  1.797813  0.348435
C  10.098375  12.724286  0.156271
C  1.302141  10.553000  0.461518
C  8.830644  12.029000  0.188531
C  15.145562  9.823667  0.406601
C  0.021251  9.823667  0.526185
C  8.830644  10.553000  0.219732
C  15.145562  8.371221  0.351203
C  0.021251  8.371221  0.534991
C  7.582124  9.823667  0.165711
C  13.876357  7.631998  0.187709
C  -1.214289  7.631998  0.631536
C  7.582124  8.371221  0.286449
C  13.876357  6.197900  0.167779
C  -1.214289  6.197900  0.632303
C  6.330357  7.631998  0.217292
C  12.623562  5.453610  0.113021
C  -2.463372  5.453610  0.474237
C  6.330357  6.197900  0.185043
C  12.623562  4.000000  0.079578
C  -2.463372  4.000000  0.431952
C  7.582124  12.724286  0.171739
C  13.876357  10.553000  0.260369
C  -1.214289  10.553000  0.545326
C  6.330357  12.029000  0.142631
C  12.623562  9.823667  0.132936
C  -2.463372  9.823667  0.423607
C  6.330357  10.553000  0.169624
C  12.623562  8.371221  0.150718
C  -2.463372  8.371221  0.483218
C  5.067250  9.823667  0.179943
C  -3.721000  7.631998  0.178035
C  5.067250  8.371221  0.203024
C  -3.721000  6.197900  0.188021
C  5.067250  12.724286  0.177064
C  3.815571  12.029000  0.256271
C  3.815571  10.553000  0.330143
C  2.546438  12.724286  0.225343
C  1.302141  12.029000  0.293773
C  6.330357  3.272000  0.070870
C  15.145562  12.724286  0.166566
C  0.021251  12.724286  0.276845
C  13.876357  12.029000  0.172886
C  -1.214289  12.029000  0.350325
C  12.623562  12.724286  0.129847
C  6.330357  1.797813  0.009717
C  8.830644  1.797813  0.063450
C  11.361143  1.797813  0.007526
C  10.098375  1.101000  0.025282
C  7.582124  1.101000  0.013567
C  5.067250  1.101000  0.058209
C  12.623562  1.101000  0.034137
