142
frame	893
H  17.693000  13.826000  0.000000
H  19.858000  12.564000  0.000000
H  21.106000  10.363000  0.000000
H  22.366000  5.656000  0.000000
H  22.367000  8.165000  0.000000
H  19.852000  1.261000  0.000000
H  17.690000  -0.000000  0.000000
H  21.104000  3.459000  0.000000
H  2.530000  -0.005000  0.000000
H  15.160000  -0.002000  0.000000
H  0.000000  -0.000000  0.000000
H  -2.163000  1.262000  0.000000
H  -3.415000  3.463000  0.000000
H  -4.677000  8.168000  0.000000
H  -4.678000  5.662000  0.000000
H  -2.159000  12.565000  0.000000
H  10.109000  13.837000  0.000000
H  7.585000  13.838000  0.000000
H  5.062000  13.833000  0.000000
H  2.535000  13.828000  0.000000
H  15.163000  13.830000  0.000000
H  0.007000  13.825000  0.000000
H  -3.412000  10.366000  0.000000
H  12.635000  13.835000  0.000000
H  10.108000  -0.010000  0.000000
H  7.583000  -0.012000  0.000000
H  5.058000  -0.011000  0.000000
H  12.631000  -0.009000  0.000000
C  16.391568  10.553000  0.308254
C  16.391568  12.029000  0.241343
C  17.670751  12.724286  0.129185
C  17.670751  8.371221  0.180186
C  17.670751  9.823667  0.053831
C  18.905140  10.553000  -0.043726
C  18.905140  12.029000  0.071423
C  17.670751  4.000000  0.048728
C  17.670751  5.453610  0.159589
C  18.905140  6.197900  0.198737
C  18.905140  7.631998  0.202665
C  20.154752  8.371221  0.015053
C  20.154752  9.823667  -0.035683
C  18.905140  3.272000  -0.053008
C  20.154752  4.000000  -0.022331
C  20.154752  5.453610  0.016786
C  21.411000  6.197900  0.012445
C  21.411000  7.631998  0.007230
C  17.670751  1.101000  0.106502
C  18.905140  1.797813  0.084282
C  5.067250  5.453610  0.507354
C  5.067250  4.000000  0.471596
C  3.815571  3.272000  0.547892
C  3.815571  1.797813  0.355753
C  11.361143  3.272000  0.494598
C  2.546438  1.101000  0.204847
C  3.815571  7.631998  0.296045
C  3.815571  6.197900  0.281746
C  11.361143  7.631998  0.827738
C  2.546438  5.453610  0.343699
C  11.361143  6.197900  0.814033
C  2.546438  4.000000  0.468650
C  10.098375  5.453610  0.967520
C  16.391568  3.272000  0.293925
C  1.302141  3.272000  0.314905
C  10.098375  4.000000  0.756735
C  16.391568  1.797813  0.224334
C  1.302141  1.797813  0.245908
C  8.830644  3.272000  0.681299
C  15.145562  1.101000  0.167502
C  0.021251  1.101000  0.123838
C  11.361143  12.029000  0.333334
C  2.546438  9.823667  0.510404
C  11.361143  10.553000  0.565068
C  2.546438  8.371221  0.356981
C  10.098375  9.823667  0.812006
C  16.391568  7.631998  0.201211
C  1.302141  7.631998  0.193211
C  10.098375  8.371221  0.995575
C  16.391568  6.197900  0.181951
C  1.302141  6.197900  0.190112
C  15.145562  5.453610  0.324295
C  0.021251  5.453610  0.147894
C  8.830644  7.631998  1.015569
C  8.830644  6.197900  0.994464
C  15.145562  4.000000  0.445834
C  0.021251  4.000000  0.035364
C  7.582124  5.453610  0.960455
C  13.876357  3.272000  0.516219
C  -1.214289  3.272000  -0.066228
C  7.582124  4.000000  0.745242
C  13.876357  1.797813  0.323826
C  -1.214289  1.797813  0.067502
C  10.098375  12.724286  0.206386
C  1.302141  10.553000  0.337497
C  8.830644  12.029000  0.352725
C  15.145562  9.823667  0.481612
C  0.021251  9.823667  0.040712
C  8.830644  10.553000  0.756681
C  15.145562  8.371221  0.354650
C  0.021251  8.371221  0.179673
C  7.582124  9.823667  0.816721
C  13.876357  7.631998  0.277680
C  -1.214289  7.631998  0.158572
C  7.582124  8.371221  1.007231
C  13.876357  6.197900  0.268428
C  -1.214289  6.197900  0.160474
C  6.330357  7.631998  0.836486
C  12.623562  5.453610  0.501630
C  -2.463372  5.453610  -0.042040
C  6.330357  6.197900  0.821713
C  12.623562  4.000000  0.448796
C  -2.463372  4.000000  -0.080442
C  7.582124  12.724286  0.225940
C  13.876357  10.553000  0.566778
C  -1.214289  10.553000  -0.079685
C  6.330357  12.029000  0.352757
C  12.623562  9.823667  0.509674
C  -2.463372  9.823667  -0.086498
C  6.330357  10.553000  0.566127
C  12.623562  8.371221  0.520678
C  -2.463372  8.371221  -0.035359
C  5.067250  9.823667  0.501808
C  -3.721000  7.631998  -0.089519
C  5.067250  8.371221  0.516579
C  -3.721000  6.197900  -0.083467
C  5.067250  12.724286  0.268678
C  3.815571  12.029000  0.437528
C  3.815571  10.553000  0.602757
C  2.546438  12.724286  0.264778
C  1.302141  12.029000  0.276958
C  6.330357  3.272000  0.485716
C  15.145562  12.724286  0.226159
C  0.021251  12.724286  0.145338
C  13.876357  12.029000  0.389478
C  -1.214289  12.029000  0.070123
C  12.623562  12.724286  0.229995
C  6.330357  1.797813  0.236095
C  8.830644  1.797813  0.237697
C  11.361143  1.797813  0.225296
C  10.098375  1.101000  0.067784
C  7.582124  1.101000  0.078776
C  5.067250  1.101000  0.148204
C  12.623562  1.101000  0.151445
