142
frame	60
H  17.693000  13.826000  0.000000
H  19.858000  12.564000  0.000000
H  21.106000  10.363000  0.000000
H  22.366000  5.656000  0.000000
H  22.367000  8.165000  0.000000
H  19.852000  1.261000  0.000000
H  17.690000  -0.000000  0.000000
H  21.104000  3.459000  0.000000
H  2.530000  -0.005000  0.000000
H  15.160000  -0.002000  0.000000
H  0.000000  -0.000000  0.000000
H  -2.163000  1.262000  0.000000
H  -3.415000  3.463000  0.000000
H  -4.677000  8.168000  0.000000
H  -4.678000  5.662000  0.000000
H  -2.159000  12.565000  0.000000
H  10.109000  13.837000  0.000000
H  7.585000  13.838000  0.000000
H  5.062000  13.833000  0.000000
H  2.535000  13.828000  0.000000
H  15.163000  13.830000  0.000000
H  0.007000  13.825000  0.000000
H  -3.412000  10.366000  0.000000
H  12.635000  13.835000  0.000000
H  10.108000  -0.010000  0.000000
H  7.583000  -0.012000  0.000000
H  5.058000  -0.011000  0.000000
H  12.631000  -0.009000  0.000000
C  16.391568  10.553000  0.008508
C  16.391568  12.029000  0.025264
C  17.670751  12.724286  0.027870
C  17.670751  8.371221  0.048635
C  17.670751  9.823667  0.064953
C  18.905140  10.553000  0.084216
C  18.905140  12.029000  0.049035
C  17.670751  4.000000  0.060291
C  17.670751  5.453610  0.045312
C  18.905140  6.197900  0.109145
C  18.905140  7.631998  0.108306
C  20.154752  8.371221  0.147148
C  20.154752  9.823667  0.122614
C  18.905140  3.272000  0.094192
C  20.154752  4.000000  0.137655
C  20.154752  5.453610  0.154880
C  21.411000  6.197900  0.208945
C  21.411000  7.631998  0.203755
C  17.670751  1.101000  0.026990
C  18.905140  1.797813  0.062845
C  5.067250  5.453610  0.049519
C  5.067250  4.000000  0.173232
C  3.815571  3.272000  0.026691
C  3.815571  1.797813  -0.074699
C  11.361143  3.272000  -0.004755
C  2.546438  1.101000  -0.047947
C  3.815571  7.631998  0.234745
C  3.815571  6.197900  0.225668
C  11.361143  7.631998  -0.396479
C  2.546438  5.453610  0.060995
C  11.361143  6.197900  -0.383672
C  2.546438  4.000000  -0.037836
C  10.098375  5.453610  -0.595470
C  16.391568  3.272000  -0.011130
C  1.302141  3.272000  -0.000219
C  10.098375  4.000000  -0.241172
C  16.391568  1.797813  0.002638
C  1.302141  1.797813  0.013720
C  8.830644  3.272000  -0.182046
C  15.145562  1.101000  -0.062616
C  0.021251  1.101000  0.024134
C  11.361143  12.029000  0.116452
C  2.546438  9.823667  0.002037
C  11.361143  10.553000  0.072065
C  2.546438  8.371221  0.082536
C  10.098375  9.823667  -0.181411
C  16.391568  7.631998  -0.011746
C  1.302141  7.631998  0.011197
C  10.098375  8.371221  -0.555885
C  16.391568  6.197900  -0.009833
C  1.302141  6.197900  0.002983
C  15.145562  5.453610  0.031685
C  0.021251  5.453610  0.040734
C  8.830644  7.631998  -0.546162
C  8.830644  6.197900  -0.546611
C  15.145562  4.000000  -0.059552
C  0.021251  4.000000  0.056361
C  7.582124  5.453610  -0.589213
C  13.876357  3.272000  -0.001433
C  -1.214289  3.272000  0.066838
C  7.582124  4.000000  -0.231583
C  13.876357  1.797813  -0.095046
C  -1.214289  1.797813  0.042975
C  10.098375  12.724286  0.151466
C  1.302141  10.553000  0.032027
C  8.830644  12.029000  0.165319
C  15.145562  9.823667  -0.042960
C  0.021251  9.823667  0.070292
C  8.830644  10.553000  -0.087766
C  15.145562  8.371221  0.032121
C  0.021251  8.371221  0.048206
C  7.582124  9.823667  -0.172854
C  13.876357  7.631998  0.189003
C  -1.214289  7.631998  0.078313
C  7.582124  8.371221  -0.551513
C  13.876357  6.197900  0.172640
C  -1.214289  6.197900  0.079073
C  6.330357  7.631998  -0.371706
C  12.623562  5.453610  0.013210
C  -2.463372  5.453610  0.090019
C  6.330357  6.197900  -0.389136
C  12.623562  4.000000  0.134717
C  -2.463372  4.000000  0.079415
C  7.582124  12.724286  0.178173
C  13.876357  10.553000  0.024441
C  -1.214289  10.553000  0.069016
C  6.330357  12.029000  0.157038
C  12.623562  9.823667  0.175783
C  -2.463372  9.823667  0.071448
C  6.330357  10.553000  0.080818
C  12.623562  8.371221  0.054989
C  -2.463372  8.371221  0.085326
C  5.067250  9.823667  0.223828
C  -3.721000  7.631998  0.096199
C  5.067250  8.371221  0.069995
C  -3.721000  6.197900  0.100356
C  5.067250  12.724286  0.091140
C  3.815571  12.029000  0.012578
C  3.815571  10.553000  0.089870
C  2.546438  12.724286  0.026324
C  1.302141  12.029000  0.057995
C  6.330357  3.272000  0.015575
C  15.145562  12.724286  -0.013159
C  0.021251  12.724286  0.051238
C  13.876357  12.029000  -0.038374
C  -1.214289  12.029000  0.049183
C  12.623562  12.724286  0.030550
C  6.330357  1.797813  0.046024
C  8.830644  1.797813  0.064157
C  11.361143  1.797813  0.034026
C  10.098375  1.101000  0.044402
C  7.582124  1.101000  0.052133
C  5.067250  1.101000  -0.029727
C  12.623562  1.101000  -0.049208
