142
frame	199
H  17.693000  13.826000  0.000000
H  19.858000  12.564000  0.000000
H  21.106000  10.363000  0.000000
H  22.366000  5.656000  0.000000
H  22.367000  8.165000  0.000000
H  19.852000  1.261000  0.000000
H  17.690000  -0.000000  0.000000
H  21.104000  3.459000  0.000000
H  2.530000  -0.005000  0.000000
H  15.160000  -0.002000  0.000000
H  0.000000  -0.000000  0.000000
H  -2.163000  1.262000  0.000000
H  -3.415000  3.463000  0.000000
H  -4.677000  8.168000  0.000000
H  -4.678000  5.662000  0.000000
H  -2.159000  12.565000  0.000000
H  10.109000  13.837000  0.000000
H  7.585000  13.838000  0.000000
H  5.062000  13.833000  0.000000
H  2.535000  13.828000  0.000000
H  15.163000  13.830000  0.000000
H  0.007000  13.825000  0.000000
H  -3.412000  10.366000  0.000000
H  12.635000  13.835000  0.000000
H  10.108000  -0.010000  0.000000
H  7.583000  -0.012000  0.000000
H  5.058000  -0.011000  0.000000
H  12.631000  -0.009000  0.000000
C  16.391568  10.553000  -0.026698
C  16.391568  12.029000  -0.056157
C  17.670751  12.724286  -0.032738
C  17.670751  8.371221  0.146658
C  17.670751  9.823667  0.244594
C  18.905140  10.553000  0.243379
C  18.905140  12.029000  0.028468
C  17.670751  4.000000  0.246667
C  17.670751  5.453610  0.147189
C  18.905140  6.197900  0.180943
C  18.905140  7.631998  0.158983
C  20.154752  8.371221  0.339395
C  20.154752  9.823667  0.338204
C  18.905140  3.272000  0.245913
C  20.154752  4.000000  0.341089
C  20.154752  5.453610  0.359039
C  21.411000  6.197900  0.412180
C  21.411000  7.631998  0.414178
C  17.670751  1.101000  -0.032119
C  18.905140  1.797813  0.043154
C  5.067250  5.453610  -0.513245
C  5.067250  4.000000  -0.620541
C  3.815571  3.272000  -0.530364
C  3.815571  1.797813  -0.354383
C  11.361143  3.272000  -0.561782
C  2.546438  1.101000  -0.128640
C  3.815571  7.631998  -0.276003
C  3.815571  6.197900  -0.293289
C  11.361143  7.631998  -0.600956
C  2.546438  5.453610  -0.312086
C  11.361143  6.197900  -0.623895
C  2.546438  4.000000  -0.379964
C  10.098375  5.453610  -0.694652
C  16.391568  3.272000  -0.049789
C  1.302141  3.272000  -0.048605
C  10.098375  4.000000  -0.637291
C  16.391568  1.797813  -0.069262
C  1.302141  1.797813  -0.078048
C  8.830644  3.272000  -0.561541
C  15.145562  1.101000  -0.138353
C  0.021251  1.101000  -0.055466
C  11.361143  12.029000  -0.385668
C  2.546438  9.823667  -0.343720
C  11.361143  10.553000  -0.501875
C  2.546438  8.371221  -0.284862
C  10.098375  9.823667  -0.567863
C  16.391568  7.631998  -0.109859
C  1.302141  7.631998  -0.124147
C  10.098375  8.371221  -0.667536
C  16.391568  6.197900  -0.117030
C  1.302141  6.197900  -0.121214
C  15.145562  5.453610  -0.302389
C  0.021251  5.453610  0.136230
C  8.830644  7.631998  -0.720637
C  8.830644  6.197900  -0.737814
C  15.145562  4.000000  -0.370861
C  0.021251  4.000000  0.223250
C  7.582124  5.453610  -0.698839
C  13.876357  3.272000  -0.522354
C  -1.214289  3.272000  0.197578
C  7.582124  4.000000  -0.639004
C  13.876357  1.797813  -0.352952
C  -1.214289  1.797813  0.009408
C  10.098375  12.724286  -0.152144
C  1.302141  10.553000  -0.012648
C  8.830644  12.029000  -0.376117
C  15.145562  9.823667  -0.348493
C  0.021251  9.823667  0.238261
C  8.830644  10.553000  -0.485372
C  15.145562  8.371221  -0.287122
C  0.021251  8.371221  0.128661
C  7.582124  9.823667  -0.563646
C  13.876357  7.631998  -0.272282
C  -1.214289  7.631998  0.126845
C  7.582124  8.371221  -0.667010
C  13.876357  6.197900  -0.298640
C  -1.214289  6.197900  0.125882
C  6.330357  7.631998  -0.594649
C  12.623562  5.453610  -0.510723
C  -2.463372  5.453610  0.284234
C  6.330357  6.197900  -0.626470
C  12.623562  4.000000  -0.625068
C  -2.463372  4.000000  0.278855
C  7.582124  12.724286  -0.134770
C  13.876357  10.553000  -0.499613
C  -1.214289  10.553000  0.198037
C  6.330357  12.029000  -0.360473
C  12.623562  9.823667  -0.575405
C  -2.463372  9.823667  0.267748
C  6.330357  10.553000  -0.487060
C  12.623562  8.371221  -0.480282
C  -2.463372  8.371221  0.286683
C  5.067250  9.823667  -0.562634
C  -3.721000  7.631998  0.308607
C  5.067250  8.371221  -0.482780
C  -3.721000  6.197900  0.313786
C  5.067250  12.724286  -0.172216
C  3.815571  12.029000  -0.272044
C  3.815571  10.553000  -0.462203
C  2.546438  12.724286  -0.059598
C  1.302141  12.029000  -0.026873
C  6.330357  3.272000  -0.557027
C  15.145562  12.724286  -0.099508
C  0.021251  12.724286  -0.015161
C  13.876357  12.029000  -0.296063
C  -1.214289  12.029000  0.026622
C  12.623562  12.724286  -0.206730
C  6.330357  1.797813  -0.471888
C  8.830644  1.797813  -0.498006
C  11.361143  1.797813  -0.484174
C  10.098375  1.101000  -0.275879
C  7.582124  1.101000  -0.276452
C  5.067250  1.101000  -0.289633
C  12.623562  1.101000  -0.296923
