142
frame	48
H  17.693000  13.826000  0.000000
H  19.858000  12.564000  0.000000
H  21.106000  10.363000  0.000000
H  22.366000  5.656000  0.000000
H  22.367000  8.165000  0.000000
H  19.852000  1.261000  0.000000
H  17.690000  -0.000000  0.000000
H  21.104000  3.459000  0.000000
H  2.530000  -0.005000  0.000000
H  15.160000  -0.002000  0.000000
H  0.000000  -0.000000  0.000000
H  -2.163000  1.262000  0.000000
H  -3.415000  3.463000  0.000000
H  -4.677000  8.168000  0.000000
H  -4.678000  5.662000  0.000000
H  -2.159000  12.565000  0.000000
H  10.109000  13.837000  0.000000
H  7.585000  13.838000  0.000000
H  5.062000  13.833000  0.000000
H  2.535000  13.828000  0.000000
H  15.163000  13.830000  0.000000
H  0.007000  13.825000  0.000000
H  -3.412000  10.366000  0.000000
H  12.635000  13.835000  0.000000
H  10.108000  -0.010000  0.000000
H  7.583000  -0.012000  0.000000
H  5.058000  -0.011000  0.000000
H  12.631000  -0.009000  0.000000
C  16.391568  10.553000  0.033127
C  16.391568  12.029000  0.021044
C  17.670751  12.724286  0.018881
C  17.670751  8.371221  0.066447
C  17.670751  9.823667  0.059426
C  18.905140  10.553000  0.075216
C  18.905140  12.029000  0.049195
C  17.670751  4.000000  0.057582
C  17.670751  5.453610  0.063064
C  18.905140  6.197900  0.109827
C  18.905140  7.631998  0.106976
C  20.154752  8.371221  0.144021
C  20.154752  9.823667  0.121772
C  18.905140  3.272000  0.084944
C  20.154752  4.000000  0.136689
C  20.154752  5.453610  0.151714
C  21.411000  6.197900  0.207901
C  21.411000  7.631998  0.203800
C  17.670751  1.101000  0.017686
C  18.905140  1.797813  0.060904
C  5.067250  5.453610  0.193782
C  5.067250  4.000000  0.091672
C  3.815571  3.272000  -0.043713
C  3.815571  1.797813  -0.058129
C  11.361143  3.272000  0.056536
C  2.546438  1.101000  -0.022786
C  3.815571  7.631998  0.143719
C  3.815571  6.197900  0.130564
C  11.361143  7.631998  -0.114593
C  2.546438  5.453610  -0.001773
C  11.361143  6.197900  -0.152553
C  2.546438  4.000000  -0.013217
C  10.098375  5.453610  -0.439384
C  16.391568  3.272000  0.016021
C  1.302141  3.272000  0.029867
C  10.098375  4.000000  -0.098008
C  16.391568  1.797813  0.000735
C  1.302141  1.797813  0.010888
C  8.830644  3.272000  0.008501
C  15.145562  1.101000  -0.038183
C  0.021251  1.101000  0.015084
C  11.361143  12.029000  0.078346
C  2.546438  9.823667  0.025639
C  11.361143  10.553000  0.113406
C  2.546438  8.371221  0.018842
C  10.098375  9.823667  -0.014776
C  16.391568  7.631998  0.009739
C  1.302141  7.631998  0.028876
C  10.098375  8.371221  -0.406633
C  16.391568  6.197900  0.004605
C  1.302141  6.197900  0.021630
C  15.145562  5.453610  -0.028067
C  0.021251  5.453610  0.060687
C  8.830644  7.631998  -0.750014
C  8.830644  6.197900  -0.778448
C  15.145562  4.000000  -0.038078
C  0.021251  4.000000  0.054430
C  7.582124  5.453610  -0.428354
C  13.876357  3.272000  -0.070608
C  -1.214289  3.272000  0.058775
C  7.582124  4.000000  -0.085566
C  13.876357  1.797813  -0.079696
C  -1.214289  1.797813  0.041836
C  10.098375  12.724286  0.054023
C  1.302141  10.553000  0.061019
C  8.830644  12.029000  0.164168
C  15.145562  9.823667  -0.013634
C  0.021251  9.823667  0.067281
C  8.830644  10.553000  0.080211
C  15.145562  8.371221  -0.023734
C  0.021251  8.371221  0.066124
C  7.582124  9.823667  -0.037025
C  13.876357  7.631998  0.086889
C  -1.214289  7.631998  0.078211
C  7.582124  8.371221  -0.393161
C  13.876357  6.197900  0.088909
C  -1.214289  6.197900  0.078029
C  6.330357  7.631998  -0.122671
C  12.623562  5.453610  0.146301
C  -2.463372  5.453610  0.085943
C  6.330357  6.197900  -0.131241
C  12.623562  4.000000  0.060307
C  -2.463372  4.000000  0.079223
C  7.582124  12.724286  0.075585
C  13.876357  10.553000  -0.035125
C  -1.214289  10.553000  0.060918
C  6.330357  12.029000  0.129790
C  12.623562  9.823667  0.083647
C  -2.463372  9.823667  0.070289
C  6.330357  10.553000  0.146879
C  12.623562  8.371221  0.176668
C  -2.463372  8.371221  0.081295
C  5.067250  9.823667  0.149508
C  -3.721000  7.631998  0.096118
C  5.067250  8.371221  0.215389
C  -3.721000  6.197900  0.099243
C  5.067250  12.724286  0.054309
C  3.815571  12.029000  0.028124
C  3.815571  10.553000  0.019535
C  2.546438  12.724286  0.052260
C  1.302141  12.029000  0.057081
C  6.330357  3.272000  0.073000
C  15.145562  12.724286  0.007662
C  0.021251  12.724286  0.042152
C  13.876357  12.029000  -0.017135
C  -1.214289  12.029000  0.045994
C  12.623562  12.724286  0.004771
C  6.330357  1.797813  0.013568
C  8.830644  1.797813  0.062296
C  11.361143  1.797813  -0.002389
C  10.098375  1.101000  -0.072497
C  7.582124  1.101000  -0.063256
C  5.067250  1.101000  -0.064921
C  12.623562  1.101000  -0.085956
