142
frame	952
H  17.693000  13.826000  0.000000
H  19.858000  12.564000  0.000000
H  21.106000  10.363000  0.000000
H  22.366000  5.656000  0.000000
H  22.367000  8.165000  0.000000
H  19.852000  1.261000  0.000000
H  17.690000  -0.000000  0.000000
H  21.104000  3.459000  0.000000
H  2.530000  -0.005000  0.000000
H  15.160000  -0.002000  0.000000
H  0.000000  -0.000000  0.000000
H  -2.163000  1.262000  0.000000
H  -3.415000  3.463000  0.000000
H  -4.677000  8.168000  0.000000
H  -4.678000  5.662000  0.000000
H  -2.159000  12.565000  0.000000
H  10.109000  13.837000  0.000000
H  7.585000  13.838000  0.000000
H  5.062000  13.833000  0.000000
H  2.535000  13.828000  0.000000
H  15.163000  13.830000  0.000000
H  0.007000  13.825000  0.000000
H  -3.412000  10.366000  0.000000
H  12.635000  13.835000  0.000000
H  10.108000  -0.010000  0.000000
H  7.583000  -0.012000  0.000000
H  5.058000  -0.011000  0.000000
H  12.631000  -0.009000  0.000000
C  16.391568  10.553000  0.130418
C  16.391568  12.029000  0.082760
C  17.670751  12.724286  0.100695
C  17.670751  8.371221  0.044829
C  17.670751  9.823667  0.158802
C  18.905140  10.553000  0.285147
C  18.905140  12.029000  0.199044
C  17.670751  4.000000  0.145981
C  17.670751  5.453610  0.045280
C  18.905140  6.197900  0.108632
C  18.905140  7.631998  0.103631
C  20.154752  8.371221  0.223341
C  20.154752  9.823667  0.306107
C  18.905140  3.272000  0.294668
C  20.154752  4.000000  0.314937
C  20.154752  5.453610  0.227074
C  21.411000  6.197900  0.290547
C  21.411000  7.631998  0.283853
C  17.670751  1.101000  0.091581
C  18.905140  1.797813  0.205636
C  5.067250  5.453610  0.601291
C  5.067250  4.000000  0.441988
C  3.815571  3.272000  0.155933
C  3.815571  1.797813  0.023460
C  11.361143  3.272000  0.581101
C  2.546438  1.101000  -0.080605
C  3.815571  7.631998  0.414803
C  3.815571  6.197900  0.410339
C  11.361143  7.631998  0.948262
C  2.546438  5.453610  0.188813
C  11.361143  6.197900  0.933424
C  2.546438  4.000000  0.182149
C  10.098375  5.453610  0.858918
C  16.391568  3.272000  0.118098
C  1.302141  3.272000  0.121611
C  10.098375  4.000000  0.828236
C  16.391568  1.797813  0.045001
C  1.302141  1.797813  0.051451
C  8.830644  3.272000  0.784901
C  15.145562  1.101000  -0.098038
C  0.021251  1.101000  0.072238
C  11.361143  12.029000  0.499358
C  2.546438  9.823667  0.220333
C  11.361143  10.553000  0.649611
C  2.546438  8.371221  0.197721
C  10.098375  9.823667  0.880149
C  16.391568  7.631998  0.100324
C  1.302141  7.631998  0.094372
C  10.098375  8.371221  0.903722
C  16.391568  6.197900  0.099213
C  1.302141  6.197900  0.091814
C  15.145562  5.453610  0.204956
C  0.021251  5.453610  0.043220
C  8.830644  7.631998  0.728620
C  8.830644  6.197900  0.703255
C  15.145562  4.000000  0.197007
C  0.021251  4.000000  0.167086
C  7.582124  5.453610  0.876188
C  13.876357  3.272000  0.145541
C  -1.214289  3.272000  0.258739
C  7.582124  4.000000  0.825444
C  13.876357  1.797813  0.033581
C  -1.214289  1.797813  0.187974
C  10.098375  12.724286  0.354311
C  1.302141  10.553000  0.141792
C  8.830644  12.029000  0.523605
C  15.145562  9.823667  0.215477
C  0.021251  9.823667  0.149111
C  8.830644  10.553000  0.852870
C  15.145562  8.371221  0.215665
C  0.021251  8.371221  0.022068
C  7.582124  9.823667  0.891376
C  13.876357  7.631998  0.403719
C  -1.214289  7.631998  0.049524
C  7.582124  8.371221  0.908435
C  13.876357  6.197900  0.401894
C  -1.214289  6.197900  0.041506
C  6.330357  7.631998  0.950184
C  12.623562  5.453610  0.605006
C  -2.463372  5.453610  0.146684
C  6.330357  6.197900  0.938872
C  12.623562  4.000000  0.438162
C  -2.463372  4.000000  0.251139
C  7.582124  12.724286  0.374566
C  13.876357  10.553000  0.186593
C  -1.214289  10.553000  0.254352
C  6.330357  12.029000  0.518500
C  12.623562  9.823667  0.470719
C  -2.463372  9.823667  0.241100
C  6.330357  10.553000  0.666942
C  12.623562  8.371221  0.623019
C  -2.463372  8.371221  0.128990
C  5.067250  9.823667  0.481866
C  -3.721000  7.631998  0.159035
C  5.067250  8.371221  0.627878
C  -3.721000  6.197900  0.164399
C  5.067250  12.724286  0.238515
C  3.815571  12.029000  0.103662
C  3.815571  10.553000  0.208298
C  2.546438  12.724286  -0.013778
C  1.302141  12.029000  0.097743
C  6.330357  3.272000  0.598689
C  15.145562  12.724286  -0.038296
C  0.021251  12.724286  0.113299
C  13.876357  12.029000  0.097937
C  -1.214289  12.029000  0.200408
C  12.623562  12.724286  0.212804
C  6.330357  1.797813  0.405332
C  8.830644  1.797813  0.399045
C  11.361143  1.797813  0.385769
C  10.098375  1.101000  0.207008
C  7.582124  1.101000  0.223273
C  5.067250  1.101000  0.125600
C  12.623562  1.101000  0.127467
