142
frame	806
H  17.693000  13.826000  0.000000
H  19.858000  12.564000  0.000000
H  21.106000  10.363000  0.000000
H  22.366000  5.656000  0.000000
H  22.367000  8.165000  0.000000
H  19.852000  1.261000  0.000000
H  17.690000  -0.000000  0.000000
H  21.104000  3.459000  0.000000
H  2.530000  -0.005000  0.000000
H  15.160000  -0.002000  0.000000
H  0.000000  -0.000000  0.000000
H  -2.163000  1.262000  0.000000
H  -3.415000  3.463000  0.000000
H  -4.677000  8.168000  0.000000
H  -4.678000  5.662000  0.000000
H  -2.159000  12.565000  0.000000
H  10.109000  13.837000  0.000000
H  7.585000  13.838000  0.000000
H  5.062000  13.833000  0.000000
H  2.535000  13.828000  0.000000
H  15.163000  13.830000  0.000000
H  0.007000  13.825000  0.000000
H  -3.412000  10.366000  0.000000
H  12.635000  13.835000  0.000000
H  10.108000  -0.010000  0.000000
H  7.583000  -0.012000  0.000000
H  5.058000  -0.011000  0.000000
H  12.631000  -0.009000  0.000000
C  16.391568  10.553000  0.226510
C  16.391568  12.029000  0.098568
C  17.670751  12.724286  0.057785
C  17.670751  8.371221  0.346232
C  17.670751  9.823667  0.129426
C  18.905140  10.553000  0.109863
C  18.905140  12.029000  0.085074
C  17.670751  4.000000  0.134617
C  17.670751  5.453610  0.356441
C  18.905140  6.197900  0.396439
C  18.905140  7.631998  0.402695
C  20.154752  8.371221  0.240022
C  20.154752  9.823667  0.186144
C  18.905140  3.272000  0.112274
C  20.154752  4.000000  0.199200
C  20.154752  5.453610  0.243279
C  21.411000  6.197900  0.195636
C  21.411000  7.631998  0.188563
C  17.670751  1.101000  0.036804
C  18.905140  1.797813  0.086344
C  5.067250  5.453610  0.717504
C  5.067250  4.000000  0.469337
C  3.815571  3.272000  0.355978
C  3.815571  1.797813  0.053955
C  11.361143  3.272000  0.276835
C  2.546438  1.101000  -0.021533
C  3.815571  7.631998  0.726550
C  3.815571  6.197900  0.707884
C  11.361143  7.631998  0.655591
C  2.546438  5.453610  0.626355
C  11.361143  6.197900  0.641543
C  2.546438  4.000000  0.399282
C  10.098375  5.453610  0.384170
C  16.391568  3.272000  0.202570
C  1.302141  3.272000  0.200153
C  10.098375  4.000000  0.328497
C  16.391568  1.797813  0.076384
C  1.302141  1.797813  0.057521
C  8.830644  3.272000  0.296676
C  15.145562  1.101000  -0.029424
C  0.021251  1.101000  0.028013
C  11.361143  12.029000  0.217151
C  2.546438  9.823667  0.444897
C  11.361143  10.553000  0.349118
C  2.546438  8.371221  0.644680
C  10.098375  9.823667  0.389053
C  16.391568  7.631998  0.498048
C  1.302141  7.631998  0.523477
C  10.098375  8.371221  0.414568
C  16.391568  6.197900  0.492952
C  1.302141  6.197900  0.516628
C  15.145562  5.453610  0.599315
C  0.021251  5.453610  0.354866
C  8.830644  7.631998  0.246752
C  8.830644  6.197900  0.210550
C  15.145562  4.000000  0.396665
C  0.021251  4.000000  0.125984
C  7.582124  5.453610  0.386964
C  13.876357  3.272000  0.350799
C  -1.214289  3.272000  0.096122
C  7.582124  4.000000  0.333413
C  13.876357  1.797813  0.051142
C  -1.214289  1.797813  0.078898
C  10.098375  12.724286  0.167491
C  1.302141  10.553000  0.246466
C  8.830644  12.029000  0.272545
C  15.145562  9.823667  0.415399
C  0.021251  9.823667  0.135544
C  8.830644  10.553000  0.380690
C  15.145562  8.371221  0.605467
C  0.021251  8.371221  0.365140
C  7.582124  9.823667  0.407729
C  13.876357  7.631998  0.678854
C  -1.214289  7.631998  0.362421
C  7.582124  8.371221  0.436375
C  13.876357  6.197900  0.662936
C  -1.214289  6.197900  0.375422
C  6.330357  7.631998  0.689422
C  12.623562  5.453610  0.683090
C  -2.463372  5.453610  0.187760
C  6.330357  6.197900  0.663407
C  12.623562  4.000000  0.435405
C  -2.463372  4.000000  0.149809
C  7.582124  12.724286  0.196144
C  13.876357  10.553000  0.399287
C  -1.214289  10.553000  0.103573
C  6.330357  12.029000  0.259681
C  12.623562  9.823667  0.488166
C  -2.463372  9.823667  0.137572
C  6.330357  10.553000  0.385223
C  12.623562  8.371221  0.705234
C  -2.463372  8.371221  0.185401
C  5.067250  9.823667  0.534117
C  -3.721000  7.631998  0.086526
C  5.067250  8.371221  0.739394
C  -3.721000  6.197900  0.084659
C  5.067250  12.724286  0.148085
C  3.815571  12.029000  0.147274
C  3.815571  10.553000  0.419687
C  2.546438  12.724286  0.065472
C  1.302141  12.029000  0.130901
C  6.330357  3.272000  0.294332
C  15.145562  12.724286  0.020145
C  0.021251  12.724286  0.057427
C  13.876357  12.029000  0.135859
C  -1.214289  12.029000  0.096587
C  12.623562  12.724286  0.105402
C  6.330357  1.797813  0.143748
C  8.830644  1.797813  0.147352
C  11.361143  1.797813  0.089080
C  10.098375  1.101000  0.028697
C  7.582124  1.101000  0.045111
C  5.067250  1.101000  0.017331
C  12.623562  1.101000  -0.013425
