142
frame	428
H  17.693000  13.826000  0.000000
H  19.858000  12.564000  0.000000
H  21.106000  10.363000  0.000000
H  22.366000  5.656000  0.000000
H  22.367000  8.165000  0.000000
H  19.852000  1.261000  0.000000
H  17.690000  -0.000000  0.000000
H  21.104000  3.459000  0.000000
H  2.530000  -0.005000  0.000000
H  15.160000  -0.002000  0.000000
H  0.000000  -0.000000  0.000000
H  -2.163000  1.262000  0.000000
H  -3.415000  3.463000  0.000000
H  -4.677000  8.168000  0.000000
H  -4.678000  5.662000  0.000000
H  -2.159000  12.565000  0.000000
H  10.109000  13.837000  0.000000
H  7.585000  13.838000  0.000000
H  5.062000  13.833000  0.000000
H  2.535000  13.828000  0.000000
H  15.163000  13.830000  0.000000
H  0.007000  13.825000  0.000000
H  -3.412000  10.366000  0.000000
H  12.635000  13.835000  0.000000
H  10.108000  -0.010000  0.000000
H  7.583000  -0.012000  0.000000
H  5.058000  -0.011000  0.000000
H  12.631000  -0.009000  0.000000
C  16.391568  10.553000  -0.523571
C  16.391568  12.029000  -0.298504
C  17.670751  12.724286  -0.136280
C  17.670751  8.371221  -0.402671
C  17.670751  9.823667  -0.389078
C  18.905140  10.553000  -0.234676
C  18.905140  12.029000  -0.182710
C  17.670751  4.000000  -0.390162
C  17.670751  5.453610  -0.391474
C  18.905140  6.197900  -0.246822
C  18.905140  7.631998  -0.243339
C  20.154752  8.371221  -0.002974
C  20.154752  9.823667  -0.043853
C  18.905140  3.272000  -0.232693
C  20.154752  4.000000  -0.035093
C  20.154752  5.453610  0.018129
C  21.411000  6.197900  0.265551
C  21.411000  7.631998  0.256192
C  17.670751  1.101000  -0.136305
C  18.905140  1.797813  -0.175320
C  5.067250  5.453610  -0.314624
C  5.067250  4.000000  -0.272630
C  3.815571  3.272000  -0.563004
C  3.815571  1.797813  -0.500127
C  11.361143  3.272000  -0.168578
C  2.546438  1.101000  -0.371118
C  3.815571  7.631998  -0.411387
C  3.815571  6.197900  -0.422351
C  11.361143  7.631998  -0.320594
C  2.546438  5.453610  -0.710307
C  11.361143  6.197900  -0.339388
C  2.546438  4.000000  -0.732817
C  10.098375  5.453610  -0.415584
C  16.391568  3.272000  -0.538925
C  1.302141  3.272000  -0.582200
C  10.098375  4.000000  -0.168489
C  16.391568  1.797813  -0.335127
C  1.302141  1.797813  -0.345551
C  8.830644  3.272000  -0.141600
C  15.145562  1.101000  -0.355093
C  0.021251  1.101000  -0.160780
C  11.361143  12.029000  -0.035536
C  2.546438  9.823667  -0.701985
C  11.361143  10.553000  -0.088393
C  2.546438  8.371221  -0.695343
C  10.098375  9.823667  -0.106350
C  16.391568  7.631998  -0.612690
C  1.302141  7.631998  -0.666497
C  10.098375  8.371221  -0.370994
C  16.391568  6.197900  -0.608034
C  1.302141  6.197900  -0.678439
C  15.145562  5.453610  -0.659170
C  0.021251  5.453610  -0.454360
C  8.830644  7.631998  -0.376678
C  8.830644  6.197900  -0.390593
C  15.145562  4.000000  -0.690711
C  0.021251  4.000000  -0.432413
C  7.582124  5.453610  -0.408774
C  13.876357  3.272000  -0.551817
C  -1.214289  3.272000  -0.264732
C  7.582124  4.000000  -0.163748
C  13.876357  1.797813  -0.495874
C  -1.214289  1.797813  -0.218615
C  10.098375  12.724286  0.133158
C  1.302141  10.553000  -0.549882
C  8.830644  12.029000  0.089906
C  15.145562  9.823667  -0.667667
C  0.021251  9.823667  -0.420777
C  8.830644  10.553000  -0.057284
C  15.145562  8.371221  -0.638013
C  0.021251  8.371221  -0.463946
C  7.582124  9.823667  -0.099088
C  13.876357  7.631998  -0.359807
C  -1.214289  7.631998  -0.339468
C  7.582124  8.371221  -0.359097
C  13.876357  6.197900  -0.375823
C  -1.214289  6.197900  -0.319631
C  6.330357  7.631998  -0.320100
C  12.623562  5.453610  -0.291177
C  -2.463372  5.453610  -0.091827
C  6.330357  6.197900  -0.338050
C  12.623562  4.000000  -0.253704
C  -2.463372  4.000000  -0.115296
C  7.582124  12.724286  0.134934
C  13.876357  10.553000  -0.508393
C  -1.214289  10.553000  -0.261537
C  6.330357  12.029000  -0.025318
C  12.623562  9.823667  -0.216302
C  -2.463372  9.823667  -0.118318
C  6.330357  10.553000  -0.099462
C  12.623562  8.371221  -0.258853
C  -2.463372  8.371221  -0.095331
C  5.067250  9.823667  -0.225131
C  -3.721000  7.631998  0.134858
C  5.067250  8.371221  -0.288957
C  -3.721000  6.197900  0.140049
C  5.067250  12.724286  -0.209882
C  3.815571  12.029000  -0.422548
C  3.815571  10.553000  -0.523376
C  2.546438  12.724286  -0.287647
C  1.302141  12.029000  -0.297606
C  6.330357  3.272000  -0.183450
C  15.145562  12.724286  -0.306941
C  0.021251  12.724286  -0.137747
C  13.876357  12.029000  -0.442644
C  -1.214289  12.029000  -0.215176
C  12.623562  12.724286  -0.241136
C  6.330357  1.797813  -0.137472
C  8.830644  1.797813  -0.023421
C  11.361143  1.797813  -0.134672
C  10.098375  1.101000  -0.006544
C  7.582124  1.101000  0.006357
C  5.067250  1.101000  -0.330529
C  12.623562  1.101000  -0.344135
