142
frame	361
H  17.693000  13.826000  0.000000
H  19.858000  12.564000  0.000000
H  21.106000  10.363000  0.000000
H  22.366000  5.656000  0.000000
H  22.367000  8.165000  0.000000
H  19.852000  1.261000  0.000000
H  17.690000  -0.000000  0.000000
H  21.104000  3.459000  0.000000
H  2.530000  -0.005000  0.000000
H  15.160000  -0.002000  0.000000
H  0.000000  -0.000000  0.000000
H  -2.163000  1.262000  0.000000
H  -3.415000  3.463000  0.000000
H  -4.677000  8.168000  0.000000
H  -4.678000  5.662000  0.000000
H  -2.159000  12.565000  0.000000
H  10.109000  13.837000  0.000000
H  7.585000  13.838000  0.000000
H  5.062000  13.833000  0.000000
H  2.535000  13.828000  0.000000
H  15.163000  13.830000  0.000000
H  0.007000  13.825000  0.000000
H  -3.412000  10.366000  0.000000
H  12.635000  13.835000  0.000000
H  10.108000  -0.010000  0.000000
H  7.583000  -0.012000  0.000000
H  5.058000  -0.011000  0.000000
H  12.631000  -0.009000  0.000000
C  16.391568  10.553000  -0.237593
C  16.391568  12.029000  -0.201899
C  17.670751  12.724286  -0.197976
C  17.670751  8.371221  -0.525875
C  17.670751  9.823667  -0.280431
C  18.905140  10.553000  -0.223808
C  18.905140  12.029000  -0.188613
C  17.670751  4.000000  -0.288820
C  17.670751  5.453610  -0.534657
C  18.905140  6.197900  -0.644805
C  18.905140  7.631998  -0.657988
C  20.154752  8.371221  -0.309718
C  20.154752  9.823667  -0.129376
C  18.905140  3.272000  -0.219786
C  20.154752  4.000000  -0.121630
C  20.154752  5.453610  -0.312850
C  21.411000  6.197900  -0.003460
C  21.411000  7.631998  -0.012621
C  17.670751  1.101000  -0.190505
C  18.905140  1.797813  -0.173959
C  5.067250  5.453610  -0.570986
C  5.067250  4.000000  -0.605455
C  3.815571  3.272000  -0.415056
C  3.815571  1.797813  -0.174981
C  11.361143  3.272000  -0.481024
C  2.546438  1.101000  -0.128861
C  3.815571  7.631998  -0.490165
C  3.815571  6.197900  -0.510888
C  11.361143  7.631998  -0.494682
C  2.546438  5.453610  -0.568658
C  11.361143  6.197900  -0.506616
C  2.546438  4.000000  -0.468886
C  10.098375  5.453610  -0.252832
C  16.391568  3.272000  -0.253777
C  1.302141  3.272000  -0.304540
C  10.098375  4.000000  -0.498365
C  16.391568  1.797813  -0.213803
C  1.302141  1.797813  -0.261437
C  8.830644  3.272000  -0.574739
C  15.145562  1.101000  -0.104397
C  0.021251  1.101000  -0.213497
C  11.361143  12.029000  -0.179583
C  2.546438  9.823667  -0.422403
C  11.361143  10.553000  -0.412151
C  2.546438  8.371221  -0.531474
C  10.098375  9.823667  -0.430848
C  16.391568  7.631998  -0.578219
C  1.302141  7.631998  -0.647670
C  10.098375  8.371221  -0.229781
C  16.391568  6.197900  -0.601546
C  1.302141  6.197900  -0.653734
C  15.145562  5.453610  -0.515549
C  0.021251  5.453610  -0.603848
C  8.830644  7.631998  -0.062482
C  8.830644  6.197900  -0.082046
C  15.145562  4.000000  -0.422287
C  0.021251  4.000000  -0.352826
C  7.582124  5.453610  -0.258047
C  13.876357  3.272000  -0.399199
C  -1.214289  3.272000  -0.293954
C  7.582124  4.000000  -0.521969
C  13.876357  1.797813  -0.177528
C  -1.214289  1.797813  -0.206900
C  10.098375  12.724286  -0.211909
C  1.302141  10.553000  -0.265550
C  8.830644  12.029000  -0.397306
C  15.145562  9.823667  -0.393725
C  0.021251  9.823667  -0.336907
C  8.830644  10.553000  -0.481268
C  15.145562  8.371221  -0.500170
C  0.021251  8.371221  -0.594523
C  7.582124  9.823667  -0.429461
C  13.876357  7.631998  -0.479594
C  -1.214289  7.631998  -0.738182
C  7.582124  8.371221  -0.226776
C  13.876357  6.197900  -0.491493
C  -1.214289  6.197900  -0.734094
C  6.330357  7.631998  -0.506775
C  12.623562  5.453610  -0.554860
C  -2.463372  5.453610  -0.403636
C  6.330357  6.197900  -0.526601
C  12.623562  4.000000  -0.598952
C  -2.463372  4.000000  -0.202072
C  7.582124  12.724286  -0.198514
C  13.876357  10.553000  -0.355721
C  -1.214289  10.553000  -0.283631
C  6.330357  12.029000  -0.156096
C  12.623562  9.823667  -0.537458
C  -2.463372  9.823667  -0.198702
C  6.330357  10.553000  -0.408884
C  12.623562  8.371221  -0.534548
C  -2.463372  8.371221  -0.411434
C  5.067250  9.823667  -0.550030
C  -3.721000  7.631998  -0.130301
C  5.067250  8.371221  -0.549821
C  -3.721000  6.197900  -0.130440
C  5.067250  12.724286  0.019546
C  3.815571  12.029000  -0.082923
C  3.815571  10.553000  -0.359454
C  2.546438  12.724286  -0.046921
C  1.302141  12.029000  -0.210573
C  6.330357  3.272000  -0.494767
C  15.145562  12.724286  -0.059298
C  0.021251  12.724286  -0.199975
C  13.876357  12.029000  -0.098323
C  -1.214289  12.029000  -0.221330
C  12.623562  12.724286  -0.015829
C  6.330357  1.797813  -0.283816
C  8.830644  1.797813  -0.529297
C  11.361143  1.797813  -0.288488
C  10.098375  1.101000  -0.347773
C  7.582124  1.101000  -0.338440
C  5.067250  1.101000  -0.101357
C  12.623562  1.101000  -0.105059
