142
frame	472
H  17.693000  13.826000  0.000000
H  19.858000  12.564000  0.000000
H  21.106000  10.363000  0.000000
H  22.366000  5.656000  0.000000
H  22.367000  8.165000  0.000000
H  19.852000  1.261000  0.000000
H  17.690000  -0.000000  0.000000
H  21.104000  3.459000  0.000000
H  2.530000  -0.005000  0.000000
H  15.160000  -0.002000  0.000000
H  0.000000  -0.000000  0.000000
H  -2.163000  1.262000  0.000000
H  -3.415000  3.463000  0.000000
H  -4.677000  8.168000  0.000000
H  -4.678000  5.662000  0.000000
H  -2.159000  12.565000  0.000000
H  10.109000  13.837000  0.000000
H  7.585000  13.838000  0.000000
H  5.062000  13.833000  0.000000
H  2.535000  13.828000  0.000000
H  15.163000  13.830000  0.000000
H  0.007000  13.825000  0.000000
H  -3.412000  10.366000  0.000000
H  12.635000  13.835000  0.000000
H  10.108000  -0.010000  0.000000
H  7.583000  -0.012000  0.000000
H  5.058000  -0.011000  0.000000
H  12.631000  -0.009000  0.000000
C  16.391568  10.553000  -0.430877
C  16.391568  12.029000  -0.315232
C  17.670751  12.724286  -0.151977
C  17.670751  8.371221  -0.298315
C  17.670751  9.823667  -0.309193
C  18.905140  10.553000  -0.017403
C  18.905140  12.029000  0.018009
C  17.670751  4.000000  -0.315588
C  17.670751  5.453610  -0.301632
C  18.905140  6.197900  -0.154695
C  18.905140  7.631998  -0.146322
C  20.154752  8.371221  0.078161
C  20.154752  9.823667  0.132639
C  18.905140  3.272000  -0.003801
C  20.154752  4.000000  0.144813
C  20.154752  5.453610  0.084603
C  21.411000  6.197900  0.174287
C  21.411000  7.631998  0.178992
C  17.670751  1.101000  -0.130549
C  18.905140  1.797813  0.043244
C  5.067250  5.453610  -0.549011
C  5.067250  4.000000  -0.405484
C  3.815571  3.272000  -0.355260
C  3.815571  1.797813  -0.182311
C  11.361143  3.272000  -0.207637
C  2.546438  1.101000  -0.185390
C  3.815571  7.631998  -0.561763
C  3.815571  6.197900  -0.571854
C  11.361143  7.631998  -0.333928
C  2.546438  5.453610  -0.533900
C  11.361143  6.197900  -0.348846
C  2.546438  4.000000  -0.479090
C  10.098375  5.453610  -0.210497
C  16.391568  3.272000  -0.445091
C  1.302141  3.272000  -0.464017
C  10.098375  4.000000  -0.052553
C  16.391568  1.797813  -0.338806
C  1.302141  1.797813  -0.321191
C  8.830644  3.272000  0.027056
C  15.145562  1.101000  -0.192072
C  0.021251  1.101000  -0.137238
C  11.361143  12.029000  0.017244
C  2.546438  9.823667  -0.448812
C  11.361143  10.553000  -0.137247
C  2.546438  8.371221  -0.535085
C  10.098375  9.823667  -0.001063
C  16.391568  7.631998  -0.430204
C  1.302141  7.631998  -0.483265
C  10.098375  8.371221  -0.175774
C  16.391568  6.197900  -0.437169
C  1.302141  6.197900  -0.492093
C  15.145562  5.453610  -0.509471
C  0.021251  5.453610  -0.373280
C  8.830644  7.631998  -0.129789
C  8.830644  6.197900  -0.145406
C  15.145562  4.000000  -0.454417
C  0.021251  4.000000  -0.358721
C  7.582124  5.453610  -0.234705
C  13.876357  3.272000  -0.343979
C  -1.214289  3.272000  -0.034511
C  7.582124  4.000000  -0.060239
C  13.876357  1.797813  -0.189246
C  -1.214289  1.797813  0.010968
C  10.098375  12.724286  0.175308
C  1.302141  10.553000  -0.448154
C  8.830644  12.029000  0.175139
C  15.145562  9.823667  -0.426485
C  0.021251  9.823667  -0.351934
C  8.830644  10.553000  0.101867
C  15.145562  8.371221  -0.485784
C  0.021251  8.371221  -0.362601
C  7.582124  9.823667  -0.006395
C  13.876357  7.631998  -0.537689
C  -1.214289  7.631998  -0.229890
C  7.582124  8.371221  -0.197687
C  13.876357  6.197900  -0.547755
C  -1.214289  6.197900  -0.225244
C  6.330357  7.631998  -0.362981
C  12.623562  5.453610  -0.525473
C  -2.463372  5.453610  -0.012573
C  6.330357  6.197900  -0.376376
C  12.623562  4.000000  -0.387107
C  -2.463372  4.000000  0.075717
C  7.582124  12.724286  0.182575
C  13.876357  10.553000  -0.291118
C  -1.214289  10.553000  -0.045611
C  6.330357  12.029000  0.026565
C  12.623562  9.823667  -0.343914
C  -2.463372  9.823667  0.057782
C  6.330357  10.553000  -0.157522
C  12.623562  8.371221  -0.504819
C  -2.463372  8.371221  -0.008938
C  5.067250  9.823667  -0.353467
C  -3.721000  7.631998  0.056821
C  5.067250  8.371221  -0.527701
C  -3.721000  6.197900  0.060964
C  5.067250  12.724286  -0.015594
C  3.815571  12.029000  -0.108795
C  3.815571  10.553000  -0.292169
C  2.546438  12.724286  -0.128905
C  1.302141  12.029000  -0.287296
C  6.330357  3.272000  -0.218957
C  15.145562  12.724286  -0.149033
C  0.021251  12.724286  -0.102358
C  13.876357  12.029000  -0.121883
C  -1.214289  12.029000  0.011705
C  12.623562  12.724286  -0.028774
C  6.330357  1.797813  -0.078334
C  8.830644  1.797813  0.064117
C  11.361143  1.797813  -0.060578
C  10.098375  1.101000  0.050658
C  7.582124  1.101000  0.050758
C  5.067250  1.101000  -0.123672
C  12.623562  1.101000  -0.117479
