142
frame	287
H  17.693000  13.826000  0.000000
H  19.858000  12.564000  0.000000
H  21.106000  10.363000  0.000000
H  22.366000  5.656000  0.000000
H  22.367000  8.165000  0.000000
H  19.852000  1.261000  0.000000
H  17.690000  -0.000000  0.000000
H  21.104000  3.459000  0.000000
H  2.530000  -0.005000  0.000000
H  15.160000  -0.002000  0.000000
H  0.000000  -0.000000  0.000000
H  -2.163000  1.262000  0.000000
H  -3.415000  3.463000  0.000000
H  -4.677000  8.168000  0.000000
H  -4.678000  5.662000  0.000000
H  -2.159000  12.565000  0.000000
H  10.109000  13.837000  0.000000
H  7.585000  13.838000  0.000000
H  5.062000  13.833000  0.000000
H  2.535000  13.828000  0.000000
H  15.163000  13.830000  0.000000
H  0.007000  13.825000  0.000000
H  -3.412000  10.366000  0.000000
H  12.635000  13.835000  0.000000
H  10.108000  -0.010000  0.000000
H  7.583000  -0.012000  0.000000
H  5.058000  -0.011000  0.000000
H  12.631000  -0.009000  0.000000
C  16.391568  10.553000  -0.213898
C  16.391568  12.029000  -0.152605
C  17.670751  12.724286  -0.195410
C  17.670751  8.371221  -0.335244
C  17.670751  9.823667  -0.069520
C  18.905140  10.553000  0.055685
C  18.905140  12.029000  -0.083376
C  17.670751  4.000000  -0.064761
C  17.670751  5.453610  -0.332811
C  18.905140  6.197900  -0.251624
C  18.905140  7.631998  -0.256934
C  20.154752  8.371221  -0.004581
C  20.154752  9.823667  0.072243
C  18.905140  3.272000  0.043251
C  20.154752  4.000000  0.093529
C  20.154752  5.453610  0.015451
C  21.411000  6.197900  0.181078
C  21.411000  7.631998  0.175783
C  17.670751  1.101000  -0.202811
C  18.905140  1.797813  -0.068770
C  5.067250  5.453610  -0.583810
C  5.067250  4.000000  -0.494378
C  3.815571  3.272000  -0.454969
C  3.815571  1.797813  -0.234090
C  11.361143  3.272000  -0.347803
C  2.546438  1.101000  -0.118178
C  3.815571  7.631998  -0.403941
C  3.815571  6.197900  -0.422876
C  11.361143  7.631998  -0.780427
C  2.546438  5.453610  -0.474301
C  11.361143  6.197900  -0.798682
C  2.546438  4.000000  -0.470543
C  10.098375  5.453610  -0.792515
C  16.391568  3.272000  -0.227723
C  1.302141  3.272000  -0.254853
C  10.098375  4.000000  -0.594383
C  16.391568  1.797813  -0.178834
C  1.302141  1.797813  -0.188737
C  8.830644  3.272000  -0.428367
C  15.145562  1.101000  -0.115505
C  0.021251  1.101000  -0.193736
C  11.361143  12.029000  -0.097308
C  2.546438  9.823667  -0.427055
C  11.361143  10.553000  -0.270050
C  2.546438  8.371221  -0.437728
C  10.098375  9.823667  -0.515282
C  16.391568  7.631998  -0.496526
C  1.302141  7.631998  -0.537837
C  10.098375  8.371221  -0.770995
C  16.391568  6.197900  -0.490696
C  1.302141  6.197900  -0.542169
C  15.145562  5.453610  -0.434046
C  0.021251  5.453610  -0.392594
C  8.830644  7.631998  -0.796059
C  8.830644  6.197900  -0.815685
C  15.145562  4.000000  -0.446843
C  0.021251  4.000000  -0.110153
C  7.582124  5.453610  -0.803687
C  13.876357  3.272000  -0.436853
C  -1.214289  3.272000  0.005918
C  7.582124  4.000000  -0.589194
C  13.876357  1.797813  -0.218492
C  -1.214289  1.797813  -0.087683
C  10.098375  12.724286  -0.009490
C  1.302141  10.553000  -0.213070
C  8.830644  12.029000  -0.167288
C  15.145562  9.823667  -0.425973
C  0.021251  9.823667  -0.094049
C  8.830644  10.553000  -0.339162
C  15.145562  8.371221  -0.423232
C  0.021251  8.371221  -0.398796
C  7.582124  9.823667  -0.502918
C  13.876357  7.631998  -0.387381
C  -1.214289  7.631998  -0.335991
C  7.582124  8.371221  -0.777156
C  13.876357  6.197900  -0.404362
C  -1.214289  6.197900  -0.331824
C  6.330357  7.631998  -0.783201
C  12.623562  5.453610  -0.575969
C  -2.463372  5.453610  -0.095334
C  6.330357  6.197900  -0.803386
C  12.623562  4.000000  -0.486992
C  -2.463372  4.000000  0.003655
C  7.582124  12.724286  0.012894
C  13.876357  10.553000  -0.393443
C  -1.214289  10.553000  0.009978
C  6.330357  12.029000  -0.078218
C  12.623562  9.823667  -0.424096
C  -2.463372  9.823667  0.013068
C  6.330357  10.553000  -0.261232
C  12.623562  8.371221  -0.552539
C  -2.463372  8.371221  -0.097587
C  5.067250  9.823667  -0.432364
C  -3.721000  7.631998  0.049185
C  5.067250  8.371221  -0.548854
C  -3.721000  6.197900  0.059450
C  5.067250  12.724286  0.070171
C  3.815571  12.029000  -0.140915
C  3.815571  10.553000  -0.384322
C  2.546438  12.724286  -0.034106
C  1.302141  12.029000  -0.141794
C  6.330357  3.272000  -0.355244
C  15.145562  12.724286  -0.057025
C  0.021251  12.724286  -0.174560
C  13.876357  12.029000  -0.155470
C  -1.214289  12.029000  -0.079257
C  12.623562  12.724286  0.034345
C  6.330357  1.797813  -0.201080
C  8.830644  1.797813  -0.295166
C  11.361143  1.797813  -0.201195
C  10.098375  1.101000  -0.133138
C  7.582124  1.101000  -0.129796
C  5.067250  1.101000  -0.062669
C  12.623562  1.101000  -0.053591
