142
frame	684
H  17.693000  13.826000  0.000000
H  19.858000  12.564000  0.000000
H  21.106000  10.363000  0.000000
H  22.366000  5.656000  0.000000
H  22.367000  8.165000  0.000000
H  19.852000  1.261000  0.000000
H  17.690000  -0.000000  0.000000
H  21.104000  3.459000  0.000000
H  2.530000  -0.005000  0.000000
H  15.160000  -0.002000  0.000000
H  0.000000  -0.000000  0.000000
H  -2.163000  1.262000  0.000000
H  -3.415000  3.463000  0.000000
H  -4.677000  8.168000  0.000000
H  -4.678000  5.662000  0.000000
H  -2.159000  12.565000  0.000000
H  10.109000  13.837000  0.000000
H  7.585000  13.838000  0.000000
H  5.062000  13.833000  0.000000
H  2.535000  13.828000  0.000000
H  15.163000  13.830000  0.000000
H  0.007000  13.825000  0.000000
H  -3.412000  10.366000  0.000000
H  12.635000  13.835000  0.000000
H  10.108000  -0.010000  0.000000
H  7.583000  -0.012000  0.000000
H  5.058000  -0.011000  0.000000
H  12.631000  -0.009000  0.000000
C  16.391568  10.553000  0.468446
C  16.391568  12.029000  0.306620
C  17.670751  12.724286  0.263547
C  17.670751  8.371221  0.521120
C  17.670751  9.823667  0.481593
C  18.905140  10.553000  0.423539
C  18.905140  12.029000  0.279960
C  17.670751  4.000000  0.485694
C  17.670751  5.453610  0.518704
C  18.905140  6.197900  0.661434
C  18.905140  7.631998  0.658663
C  20.154752  8.371221  0.538991
C  20.154752  9.823667  0.335509
C  18.905140  3.272000  0.438113
C  20.154752  4.000000  0.352645
C  20.154752  5.453610  0.550863
C  21.411000  6.197900  0.449031
C  21.411000  7.631998  0.443075
C  17.670751  1.101000  0.268063
C  18.905140  1.797813  0.306396
C  5.067250  5.453610  0.184183
C  5.067250  4.000000  0.058268
C  3.815571  3.272000  0.086595
C  3.815571  1.797813  -0.040940
C  11.361143  3.272000  0.030573
C  2.546438  1.101000  0.051246
C  3.815571  7.631998  0.180154
C  3.815571  6.197900  0.167076
C  11.361143  7.631998  0.093053
C  2.546438  5.453610  0.268920
C  11.361143  6.197900  0.089864
C  2.546438  4.000000  0.310316
C  10.098375  5.453610  -0.079939
C  16.391568  3.272000  0.473880
C  1.302141  3.272000  0.477235
C  10.098375  4.000000  0.018235
C  16.391568  1.797813  0.289499
C  1.302141  1.797813  0.293730
C  8.830644  3.272000  0.068050
C  15.145562  1.101000  0.033215
C  0.021251  1.101000  0.258682
C  11.361143  12.029000  0.070286
C  2.546438  9.823667  0.358744
C  11.361143  10.553000  0.101003
C  2.546438  8.371221  0.276406
C  10.098375  9.823667  0.090153
C  16.391568  7.631998  0.390124
C  1.302141  7.631998  0.405961
C  10.098375  8.371221  -0.054006
C  16.391568  6.197900  0.387033
C  1.302141  6.197900  0.405058
C  15.145562  5.453610  0.239545
C  0.021251  5.453610  0.483856
C  8.830644  7.631998  -0.265110
C  8.830644  6.197900  -0.283939
C  15.145562  4.000000  0.296144
C  0.021251  4.000000  0.456828
C  7.582124  5.453610  -0.080970
C  13.876357  3.272000  0.067170
C  -1.214289  3.272000  0.406891
C  7.582124  4.000000  0.038322
C  13.876357  1.797813  -0.047348
C  -1.214289  1.797813  0.286226
C  10.098375  12.724286  0.005307
C  1.302141  10.553000  0.503260
C  8.830644  12.029000  0.057855
C  15.145562  9.823667  0.304302
C  0.021251  9.823667  0.464514
C  8.830644  10.553000  0.157776
C  15.145562  8.371221  0.228353
C  0.021251  8.371221  0.487430
C  7.582124  9.823667  0.116712
C  13.876357  7.631998  0.140853
C  -1.214289  7.631998  0.600851
C  7.582124  8.371221  -0.045653
C  13.876357  6.197900  0.146411
C  -1.214289  6.197900  0.606688
C  6.330357  7.631998  0.127777
C  12.623562  5.453610  0.184004
C  -2.463372  5.453610  0.445352
C  6.330357  6.197900  0.101697
C  12.623562  4.000000  0.034644
C  -2.463372  4.000000  0.286639
C  7.582124  12.724286  0.045908
C  13.876357  10.553000  0.110293
C  -1.214289  10.553000  0.405186
C  6.330357  12.029000  0.123655
C  12.623562  9.823667  0.087465
C  -2.463372  9.823667  0.262627
C  6.330357  10.553000  0.146399
C  12.623562  8.371221  0.176065
C  -2.463372  8.371221  0.442319
C  5.067250  9.823667  0.126476
C  -3.721000  7.631998  0.309218
C  5.067250  8.371221  0.204982
C  -3.721000  6.197900  0.324210
C  5.067250  12.724286  0.107473
C  3.815571  12.029000  0.070313
C  3.815571  10.553000  0.162915
C  2.546438  12.724286  0.129992
C  1.302141  12.029000  0.338904
C  6.330357  3.272000  0.053921
C  15.145562  12.724286  0.097564
C  0.021251  12.724286  0.302860
C  13.876357  12.029000  0.017661
C  -1.214289  12.029000  0.293568
C  12.623562  12.724286  0.057163
C  6.330357  1.797813  0.011750
C  8.830644  1.797813  -0.064935
C  11.361143  1.797813  -0.027873
C  10.098375  1.101000  -0.118003
C  7.582124  1.101000  -0.092645
C  5.067250  1.101000  -0.013252
C  12.623562  1.101000  -0.018338
