142
frame	660
H  17.693000  13.826000  0.000000
H  19.858000  12.564000  0.000000
H  21.106000  10.363000  0.000000
H  22.366000  5.656000  0.000000
H  22.367000  8.165000  0.000000
H  19.852000  1.261000  0.000000
H  17.690000  -0.000000  0.000000
H  21.104000  3.459000  0.000000
H  2.530000  -0.005000  0.000000
H  15.160000  -0.002000  0.000000
H  0.000000  -0.000000  0.000000
H  -2.163000  1.262000  0.000000
H  -3.415000  3.463000  0.000000
H  -4.677000  8.168000  0.000000
H  -4.678000  5.662000  0.000000
H  -2.159000  12.565000  0.000000
H  10.109000  13.837000  0.000000
H  7.585000  13.838000  0.000000
H  5.062000  13.833000  0.000000
H  2.535000  13.828000  0.000000
H  15.163000  13.830000  0.000000
H  0.007000  13.825000  0.000000
H  -3.412000  10.366000  0.000000
H  12.635000  13.835000  0.000000
H  10.108000  -0.010000  0.000000
H  7.583000  -0.012000  0.000000
H  5.058000  -0.011000  0.000000
H  12.631000  -0.009000  0.000000
C  16.391568  10.553000  0.183021
C  16.391568  12.029000  0.101343
C  17.670751  12.724286  0.101662
C  17.670751  8.371221  0.451857
C  17.670751  9.823667  0.280074
C  18.905140  10.553000  0.250515
C  18.905140  12.029000  0.180825
C  17.670751  4.000000  0.296121
C  17.670751  5.453610  0.456736
C  18.905140  6.197900  0.592533
C  18.905140  7.631998  0.588916
C  20.154752  8.371221  0.474289
C  20.154752  9.823667  0.347116
C  18.905140  3.272000  0.281048
C  20.154752  4.000000  0.374477
C  20.154752  5.453610  0.471391
C  21.411000  6.197900  0.306688
C  21.411000  7.631998  0.304489
C  17.670751  1.101000  0.093348
C  18.905140  1.797813  0.191689
C  5.067250  5.453610  -0.057975
C  5.067250  4.000000  0.024224
C  3.815571  3.272000  0.219986
C  3.815571  1.797813  0.136154
C  11.361143  3.272000  -0.098930
C  2.546438  1.101000  0.023788
C  3.815571  7.631998  0.251182
C  3.815571  6.197900  0.240720
C  11.361143  7.631998  -0.137297
C  2.546438  5.453610  0.451599
C  11.361143  6.197900  -0.150790
C  2.546438  4.000000  0.349542
C  10.098375  5.453610  -0.117455
C  16.391568  3.272000  0.167405
C  1.302141  3.272000  0.160059
C  10.098375  4.000000  -0.148220
C  16.391568  1.797813  0.070533
C  1.302141  1.797813  0.079959
C  8.830644  3.272000  -0.133347
C  15.145562  1.101000  0.022138
C  0.021251  1.101000  0.103509
C  11.361143  12.029000  0.033927
C  2.546438  9.823667  0.389548
C  11.361143  10.553000  -0.036019
C  2.546438  8.371221  0.480555
C  10.098375  9.823667  -0.094752
C  16.391568  7.631998  0.457110
C  1.302141  7.631998  0.473724
C  10.098375  8.371221  -0.088522
C  16.391568  6.197900  0.465654
C  1.302141  6.197900  0.469617
C  15.145562  5.453610  0.454127
C  0.021251  5.453610  0.448542
C  8.830644  7.631998  -0.035822
C  8.830644  6.197900  -0.048096
C  15.145562  4.000000  0.344592
C  0.021251  4.000000  0.274009
C  7.582124  5.453610  -0.092183
C  13.876357  3.272000  0.204468
C  -1.214289  3.272000  0.220956
C  7.582124  4.000000  -0.133517
C  13.876357  1.797813  0.112012
C  -1.214289  1.797813  0.162528
C  10.098375  12.724286  0.077538
C  1.302141  10.553000  0.194044
C  8.830644  12.029000  0.028279
C  15.145562  9.823667  0.355799
C  0.021251  9.823667  0.278085
C  8.830644  10.553000  -0.050640
C  15.145562  8.371221  0.454965
C  0.021251  8.371221  0.449636
C  7.582124  9.823667  -0.074204
C  13.876357  7.631998  0.232967
C  -1.214289  7.631998  0.531733
C  7.582124  8.371221  -0.060402
C  13.876357  6.197900  0.233572
C  -1.214289  6.197900  0.529725
C  6.330357  7.631998  -0.130193
C  12.623562  5.453610  -0.076323
C  -2.463372  5.453610  0.401074
C  6.330357  6.197900  -0.132387
C  12.623562  4.000000  0.005674
C  -2.463372  4.000000  0.296257
C  7.582124  12.724286  0.092343
C  13.876357  10.553000  0.235021
C  -1.214289  10.553000  0.221406
C  6.330357  12.029000  0.065355
C  12.623562  9.823667  0.026277
C  -2.463372  9.823667  0.289851
C  6.330357  10.553000  -0.005363
C  12.623562  8.371221  -0.060889
C  -2.463372  8.371221  0.384723
C  5.067250  9.823667  0.074907
C  -3.721000  7.631998  0.178447
C  5.067250  8.371221  -0.024965
C  -3.721000  6.197900  0.177778
C  5.067250  12.724286  0.128714
C  3.815571  12.029000  0.225104
C  3.815571  10.553000  0.292470
C  2.546438  12.724286  0.108894
C  1.302141  12.029000  0.125974
C  6.330357  3.272000  -0.069150
C  15.145562  12.724286  0.059332
C  0.021251  12.724286  0.119855
C  13.876357  12.029000  0.176198
C  -1.214289  12.029000  0.171602
C  12.623562  12.724286  0.084089
C  6.330357  1.797813  -0.061773
C  8.830644  1.797813  -0.094491
C  11.361143  1.797813  -0.060528
C  10.098375  1.101000  -0.056471
C  7.582124  1.101000  -0.053650
C  5.067250  1.101000  0.001324
C  12.623562  1.101000  -0.020253
