142
frame	183
H  17.693000  13.826000  0.000000
H  19.858000  12.564000  0.000000
H  21.106000  10.363000  0.000000
H  22.366000  5.656000  0.000000
H  22.367000  8.165000  0.000000
H  19.852000  1.261000  0.000000
H  17.690000  -0.000000  0.000000
H  21.104000  3.459000  0.000000
H  2.530000  -0.005000  0.000000
H  15.160000  -0.002000  0.000000
H  0.000000  -0.000000  0.000000
H  -2.163000  1.262000  0.000000
H  -3.415000  3.463000  0.000000
H  -4.677000  8.168000  0.000000
H  -4.678000  5.662000  0.000000
H  -2.159000  12.565000  0.000000
H  10.109000  13.837000  0.000000
H  7.585000  13.838000  0.000000
H  5.062000  13.833000  0.000000
H  2.535000  13.828000  0.000000
H  15.163000  13.830000  0.000000
H  0.007000  13.825000  0.000000
H  -3.412000  10.366000  0.000000
H  12.635000  13.835000  0.000000
H  10.108000  -0.010000  0.000000
H  7.583000  -0.012000  0.000000
H  5.058000  -0.011000  0.000000
H  12.631000  -0.009000  0.000000
C  16.391568  10.553000  -0.015502
C  16.391568  12.029000  -0.034310
C  17.670751  12.724286  0.115668
C  17.670751  8.371221  0.007805
C  17.670751  9.823667  0.191651
C  18.905140  10.553000  0.430240
C  18.905140  12.029000  0.273778
C  17.670751  4.000000  0.194154
C  17.670751  5.453610  0.032076
C  18.905140  6.197900  0.131822
C  18.905140  7.631998  0.126020
C  20.154752  8.371221  0.366887
C  20.154752  9.823667  0.426804
C  18.905140  3.272000  0.426179
C  20.154752  4.000000  0.450981
C  20.154752  5.453610  0.368640
C  21.411000  6.197900  0.355378
C  21.411000  7.631998  0.354055
C  17.670751  1.101000  0.107539
C  18.905140  1.797813  0.281558
C  5.067250  5.453610  -0.483390
C  5.067250  4.000000  -0.620162
C  3.815571  3.272000  -0.450435
C  3.815571  1.797813  -0.335651
C  11.361143  3.272000  -0.721089
C  2.546438  1.101000  -0.232887
C  3.815571  7.631998  -0.320761
C  3.815571  6.197900  -0.335929
C  11.361143  7.631998  -0.417266
C  2.546438  5.453610  -0.170828
C  11.361143  6.197900  -0.434241
C  2.546438  4.000000  -0.214913
C  10.098375  5.453610  -0.656182
C  16.391568  3.272000  -0.018121
C  1.302141  3.272000  -0.031762
C  10.098375  4.000000  -0.696403
C  16.391568  1.797813  -0.058006
C  1.302141  1.797813  -0.065858
C  8.830644  3.272000  -0.711229
C  15.145562  1.101000  -0.226414
C  0.021251  1.101000  0.103904
C  11.361143  12.029000  -0.332410
C  2.546438  9.823667  -0.177087
C  11.361143  10.553000  -0.660264
C  2.546438  8.371221  -0.165204
C  10.098375  9.823667  -0.653078
C  16.391568  7.631998  -0.064929
C  1.302141  7.631998  -0.064251
C  10.098375  8.371221  -0.597926
C  16.391568  6.197900  -0.067967
C  1.302141  6.197900  -0.065218
C  15.145562  5.453610  -0.174083
C  0.021251  5.453610  -0.006219
C  8.830644  7.631998  -0.687240
C  8.830644  6.197900  -0.707376
C  15.145562  4.000000  -0.219136
C  0.021251  4.000000  0.177253
C  7.582124  5.453610  -0.650655
C  13.876357  3.272000  -0.445595
C  -1.214289  3.272000  0.404253
C  7.582124  4.000000  -0.691126
C  13.876357  1.797813  -0.346388
C  -1.214289  1.797813  0.254823
C  10.098375  12.724286  -0.210923
C  1.302141  10.553000  0.007988
C  8.830644  12.029000  -0.273090
C  15.145562  9.823667  -0.187775
C  0.021251  9.823667  0.185687
C  8.830644  10.553000  -0.635020
C  15.145562  8.371221  -0.155589
C  0.021251  8.371221  0.006625
C  7.582124  9.823667  -0.634479
C  13.876357  7.631998  -0.334161
C  -1.214289  7.631998  0.087600
C  7.582124  8.371221  -0.606997
C  13.876357  6.197900  -0.337443
C  -1.214289  6.197900  0.082703
C  6.330357  7.631998  -0.418541
C  12.623562  5.453610  -0.503150
C  -2.463372  5.453610  0.308326
C  6.330357  6.197900  -0.426673
C  12.623562  4.000000  -0.609989
C  -2.463372  4.000000  0.394617
C  7.582124  12.724286  -0.191800
C  13.876357  10.553000  -0.400973
C  -1.214289  10.553000  0.398752
C  6.330357  12.029000  -0.310218
C  12.623562  9.823667  -0.575039
C  -2.463372  9.823667  0.385107
C  6.330357  10.553000  -0.643772
C  12.623562  8.371221  -0.466367
C  -2.463372  8.371221  0.302226
C  5.067250  9.823667  -0.555754
C  -3.721000  7.631998  0.256641
C  5.067250  8.371221  -0.453401
C  -3.721000  6.197900  0.260849
C  5.067250  12.724286  -0.136168
C  3.815571  12.029000  -0.246024
C  3.815571  10.553000  -0.389886
C  2.546438  12.724286  -0.159980
C  1.302141  12.029000  -0.014017
C  6.330357  3.272000  -0.721230
C  15.145562  12.724286  -0.195701
C  0.021251  12.724286  0.142753
C  13.876357  12.029000  -0.292131
C  -1.214289  12.029000  0.256582
C  12.623562  12.724286  -0.164077
C  6.330357  1.797813  -0.419742
C  8.830644  1.797813  -0.389381
C  11.361143  1.797813  -0.421101
C  10.098375  1.101000  -0.344376
C  7.582124  1.101000  -0.334466
C  5.067250  1.101000  -0.247341
C  12.623562  1.101000  -0.260167
