142
frame	737
H  17.693000  13.826000  0.000000
H  19.858000  12.564000  0.000000
H  21.106000  10.363000  0.000000
H  22.366000  5.656000  0.000000
H  22.367000  8.165000  0.000000
H  19.852000  1.261000  0.000000
H  17.690000  -0.000000  0.000000
H  21.104000  3.459000  0.000000
H  2.530000  -0.005000  0.000000
H  15.160000  -0.002000  0.000000
H  0.000000  -0.000000  0.000000
H  -2.163000  1.262000  0.000000
H  -3.415000  3.463000  0.000000
H  -4.677000  8.168000  0.000000
H  -4.678000  5.662000  0.000000
H  -2.159000  12.565000  0.000000
H  10.109000  13.837000  0.000000
H  7.585000  13.838000  0.000000
H  5.062000  13.833000  0.000000
H  2.535000  13.828000  0.000000
H  15.163000  13.830000  0.000000
H  0.007000  13.825000  0.000000
H  -3.412000  10.366000  0.000000
H  12.635000  13.835000  0.000000
H  10.108000  -0.010000  0.000000
H  7.583000  -0.012000  0.000000
H  5.058000  -0.011000  0.000000
H  12.631000  -0.009000  0.000000
C  16.391568  10.553000  0.395908
C  16.391568  12.029000  0.241472
C  17.670751  12.724286  0.214566
C  17.670751  8.371221  0.537226
C  17.670751  9.823667  0.447597
C  18.905140  10.553000  0.504159
C  18.905140  12.029000  0.356811
C  17.670751  4.000000  0.443192
C  17.670751  5.453610  0.522067
C  18.905140  6.197900  0.711188
C  18.905140  7.631998  0.698262
C  20.154752  8.371221  0.541337
C  20.154752  9.823667  0.448903
C  18.905140  3.272000  0.523303
C  20.154752  4.000000  0.469178
C  20.154752  5.453610  0.539686
C  21.411000  6.197900  0.263972
C  21.411000  7.631998  0.263901
C  17.670751  1.101000  0.206327
C  18.905140  1.797813  0.368139
C  5.067250  5.453610  0.118458
C  5.067250  4.000000  0.095184
C  3.815571  3.272000  0.296937
C  3.815571  1.797813  0.180574
C  11.361143  3.272000  0.028979
C  2.546438  1.101000  0.118602
C  3.815571  7.631998  0.236264
C  3.815571  6.197900  0.220194
C  11.361143  7.631998  0.194090
C  2.546438  5.453610  0.388623
C  11.361143  6.197900  0.167846
C  2.546438  4.000000  0.475515
C  10.098375  5.453610  0.271967
C  16.391568  3.272000  0.394996
C  1.302141  3.272000  0.393030
C  10.098375  4.000000  0.106723
C  16.391568  1.797813  0.224424
C  1.302141  1.797813  0.238789
C  8.830644  3.272000  0.173594
C  15.145562  1.101000  0.109828
C  0.021251  1.101000  0.203604
C  11.361143  12.029000  0.130725
C  2.546438  9.823667  0.526720
C  11.361143  10.553000  0.101384
C  2.546438  8.371221  0.425918
C  10.098375  9.823667  0.170096
C  16.391568  7.631998  0.494916
C  1.302141  7.631998  0.510452
C  10.098375  8.371221  0.315478
C  16.391568  6.197900  0.497897
C  1.302141  6.197900  0.502579
C  15.145562  5.453610  0.367315
C  0.021251  5.453610  0.501127
C  8.830644  7.631998  0.462875
C  8.830644  6.197900  0.444051
C  15.145562  4.000000  0.456273
C  0.021251  4.000000  0.424984
C  7.582124  5.453610  0.283956
C  13.876357  3.272000  0.261919
C  -1.214289  3.272000  0.490406
C  7.582124  4.000000  0.100929
C  13.876357  1.797813  0.155052
C  -1.214289  1.797813  0.347438
C  10.098375  12.724286  0.148503
C  1.302141  10.553000  0.435981
C  8.830644  12.029000  0.156249
C  15.145562  9.823667  0.487572
C  0.021251  9.823667  0.447479
C  8.830644  10.553000  0.259712
C  15.145562  8.371221  0.395618
C  0.021251  8.371221  0.515539
C  7.582124  9.823667  0.188278
C  13.876357  7.631998  0.197750
C  -1.214289  7.631998  0.667388
C  7.582124  8.371221  0.335300
C  13.876357  6.197900  0.182738
C  -1.214289  6.197900  0.660400
C  6.330357  7.631998  0.229271
C  12.623562  5.453610  0.079508
C  -2.463372  5.453610  0.457000
C  6.330357  6.197900  0.210300
C  12.623562  4.000000  0.056934
C  -2.463372  4.000000  0.409224
C  7.582124  12.724286  0.156393
C  13.876357  10.553000  0.297648
C  -1.214289  10.553000  0.497009
C  6.330357  12.029000  0.162019
C  12.623562  9.823667  0.112019
C  -2.463372  9.823667  0.403840
C  6.330357  10.553000  0.138892
C  12.623562  8.371221  0.113441
C  -2.463372  8.371221  0.463590
C  5.067250  9.823667  0.160253
C  -3.721000  7.631998  0.145152
C  5.067250  8.371221  0.170621
C  -3.721000  6.197900  0.151304
C  5.067250  12.724286  0.233176
C  3.815571  12.029000  0.275550
C  3.815571  10.553000  0.372587
C  2.546438  12.724286  0.191414
C  1.302141  12.029000  0.270951
C  6.330357  3.272000  0.046600
C  15.145562  12.724286  0.134606
C  0.021251  12.724286  0.236399
C  13.876357  12.029000  0.192988
C  -1.214289  12.029000  0.356628
C  12.623562  12.724286  0.189825
C  6.330357  1.797813  0.027316
C  8.830644  1.797813  0.026739
C  11.361143  1.797813  0.032282
C  10.098375  1.101000  0.013591
C  7.582124  1.101000  -0.000403
C  5.067250  1.101000  0.113627
C  12.623562  1.101000  0.102219
