142
frame	71
H  17.693000  13.826000  0.000000
H  19.858000  12.564000  0.000000
H  21.106000  10.363000  0.000000
H  22.366000  5.656000  0.000000
H  22.367000  8.165000  0.000000
H  19.852000  1.261000  0.000000
H  17.690000  -0.000000  0.000000
H  21.104000  3.459000  0.000000
H  2.530000  -0.005000  0.000000
H  15.160000  -0.002000  0.000000
H  0.000000  -0.000000  0.000000
H  -2.163000  1.262000  0.000000
H  -3.415000  3.463000  0.000000
H  -4.677000  8.168000  0.000000
H  -4.678000  5.662000  0.000000
H  -2.159000  12.565000  0.000000
H  10.109000  13.837000  0.000000
H  7.585000  13.838000  0.000000
H  5.062000  13.833000  0.000000
H  2.535000  13.828000  0.000000
H  15.163000  13.830000  0.000000
H  0.007000  13.825000  0.000000
H  -3.412000  10.366000  0.000000
H  12.635000  13.835000  0.000000
H  10.108000  -0.010000  0.000000
H  7.583000  -0.012000  0.000000
H  5.058000  -0.011000  0.000000
H  12.631000  -0.009000  0.000000
C  16.391568  10.553000  -0.031119
C  16.391568  12.029000  0.006315
C  17.670751  12.724286  0.039428
C  17.670751  8.371221  0.021974
C  17.670751  9.823667  0.047715
C  18.905140  10.553000  0.094835
C  18.905140  12.029000  0.058555
C  17.670751  4.000000  0.040109
C  17.670751  5.453610  0.022581
C  18.905140  6.197900  0.097991
C  18.905140  7.631998  0.098111
C  20.154752  8.371221  0.151400
C  20.154752  9.823667  0.129196
C  18.905140  3.272000  0.103045
C  20.154752  4.000000  0.144406
C  20.154752  5.453610  0.157217
C  21.411000  6.197900  0.212171
C  21.411000  7.631998  0.207060
C  17.670751  1.101000  0.036831
C  18.905140  1.797813  0.072806
C  5.067250  5.453610  -0.101319
C  5.067250  4.000000  0.089587
C  3.815571  3.272000  0.121416
C  3.815571  1.797813  -0.030429
C  11.361143  3.272000  -0.054528
C  2.546438  1.101000  -0.079513
C  3.815571  7.631998  0.215935
C  3.815571  6.197900  0.208685
C  11.361143  7.631998  -0.555653
C  2.546438  5.453610  0.151420
C  11.361143  6.197900  -0.551751
C  2.546438  4.000000  0.011747
C  10.098375  5.453610  -0.566863
C  16.391568  3.272000  -0.047130
C  1.302141  3.272000  -0.038826
C  10.098375  4.000000  -0.423923
C  16.391568  1.797813  -0.020533
C  1.302141  1.797813  -0.012148
C  8.830644  3.272000  -0.302409
C  15.145562  1.101000  -0.092752
C  0.021251  1.101000  0.033849
C  11.361143  12.029000  0.132744
C  2.546438  9.823667  0.051615
C  11.361143  10.553000  0.018518
C  2.546438  8.371221  0.169032
C  10.098375  9.823667  -0.369607
C  16.391568  7.631998  0.012222
C  1.302141  7.631998  0.038017
C  10.098375  8.371221  -0.541878
C  16.391568  6.197900  0.016079
C  1.302141  6.197900  0.029929
C  15.145562  5.453610  0.113498
C  0.021251  5.453610  0.015152
C  8.830644  7.631998  -0.466046
C  8.830644  6.197900  -0.471754
C  15.145562  4.000000  -0.010282
C  0.021251  4.000000  0.034590
C  7.582124  5.453610  -0.571149
C  13.876357  3.272000  0.088825
C  -1.214289  3.272000  0.076713
C  7.582124  4.000000  -0.414389
C  13.876357  1.797813  -0.049862
C  -1.214289  1.797813  0.053665
C  10.098375  12.724286  0.216452
C  1.302141  10.553000  -0.004553
C  8.830644  12.029000  0.114434
C  15.145562  9.823667  -0.003422
C  0.021251  9.823667  0.049500
C  8.830644  10.553000  -0.214198
C  15.145562  8.371221  0.124007
C  0.021251  8.371221  0.022619
C  7.582124  9.823667  -0.333707
C  13.876357  7.631998  0.184866
C  -1.214289  7.631998  0.067392
C  7.582124  8.371221  -0.542987
C  13.876357  6.197900  0.159740
C  -1.214289  6.197900  0.066252
C  6.330357  7.631998  -0.526362
C  12.623562  5.453610  -0.121241
C  -2.463372  5.453610  0.094048
C  6.330357  6.197900  -0.550096
C  12.623562  4.000000  0.054662
C  -2.463372  4.000000  0.087226
C  7.582124  12.724286  0.244765
C  13.876357  10.553000  0.120303
C  -1.214289  10.553000  0.078865
C  6.330357  12.029000  0.155134
C  12.623562  9.823667  0.120983
C  -2.463372  9.823667  0.079252
C  6.330357  10.553000  0.034827
C  12.623562  8.371221  -0.104664
C  -2.463372  8.371221  0.089337
C  5.067250  9.823667  0.132765
C  -3.721000  7.631998  0.099150
C  5.067250  8.371221  -0.077684
C  -3.721000  6.197900  0.102286
C  5.067250  12.724286  0.123732
C  3.815571  12.029000  0.058892
C  3.815571  10.553000  0.179390
C  2.546438  12.724286  -0.004232
C  1.302141  12.029000  0.033291
C  6.330357  3.272000  -0.031170
C  15.145562  12.724286  -0.045537
C  0.021251  12.724286  0.061143
C  13.876357  12.029000  -0.004348
C  -1.214289  12.029000  0.058944
C  12.623562  12.724286  0.062883
C  6.330357  1.797813  0.054099
C  8.830644  1.797813  0.002893
C  11.361143  1.797813  0.040530
C  10.098375  1.101000  0.116701
C  7.582124  1.101000  0.122410
C  5.067250  1.101000  0.003810
C  12.623562  1.101000  -0.011302
