142
frame	346
H  17.693000  13.826000  0.000000
H  19.858000  12.564000  0.000000
H  21.106000  10.363000  0.000000
H  22.366000  5.656000  0.000000
H  22.367000  8.165000  0.000000
H  19.852000  1.261000  0.000000
H  17.690000  -0.000000  0.000000
H  21.104000  3.459000  0.000000
H  2.530000  -0.005000  0.000000
H  15.160000  -0.002000  0.000000
H  0.000000  -0.000000  0.000000
H  -2.163000  1.262000  0.000000
H  -3.415000  3.463000  0.000000
H  -4.677000  8.168000  0.000000
H  -4.678000  5.662000  0.000000
H  -2.159000  12.565000  0.000000
H  10.109000  13.837000  0.000000
H  7.585000  13.838000  0.000000
H  5.062000  13.833000  0.000000
H  2.535000  13.828000  0.000000
H  15.163000  13.830000  0.000000
H  0.007000  13.825000  0.000000
H  -3.412000  10.366000  0.000000
H  12.635000  13.835000  0.000000
H  10.108000  -0.010000  0.000000
H  7.583000  -0.012000  0.000000
H  5.058000  -0.011000  0.000000
H  12.631000  -0.009000  0.000000
C  16.391568  10.553000  -0.209363
C  16.391568  12.029000  -0.049017
C  17.670751  12.724286  -0.074235
C  17.670751  8.371221  -0.547332
C  17.670751  9.823667  -0.262846
C  18.905140  10.553000  -0.148465
C  18.905140  12.029000  -0.065773
C  17.670751  4.000000  -0.279717
C  17.670751  5.453610  -0.544067
C  18.905140  6.197900  -0.612914
C  18.905140  7.631998  -0.622798
C  20.154752  8.371221  -0.328782
C  20.154752  9.823667  -0.153782
C  18.905140  3.272000  -0.132843
C  20.154752  4.000000  -0.158108
C  20.154752  5.453610  -0.320383
C  21.411000  6.197900  0.011330
C  21.411000  7.631998  0.020109
C  17.670751  1.101000  -0.055231
C  18.905140  1.797813  -0.045992
C  5.067250  5.453610  -0.520995
C  5.067250  4.000000  -0.395264
C  3.815571  3.272000  -0.438855
C  3.815571  1.797813  -0.222340
C  11.361143  3.272000  -0.462371
C  2.546438  1.101000  -0.050915
C  3.815571  7.631998  -0.552045
C  3.815571  6.197900  -0.570166
C  11.361143  7.631998  -0.498758
C  2.546438  5.453610  -0.580007
C  11.361143  6.197900  -0.512938
C  2.546438  4.000000  -0.484945
C  10.098375  5.453610  -0.442570
C  16.391568  3.272000  -0.225179
C  1.302141  3.272000  -0.277052
C  10.098375  4.000000  -0.527175
C  16.391568  1.797813  -0.066050
C  1.302141  1.797813  -0.109031
C  8.830644  3.272000  -0.642148
C  15.145562  1.101000  -0.054245
C  0.021251  1.101000  -0.105797
C  11.361143  12.029000  -0.255005
C  2.546438  9.823667  -0.434605
C  11.361143  10.553000  -0.387240
C  2.546438  8.371221  -0.559389
C  10.098375  9.823667  -0.471621
C  16.391568  7.631998  -0.604597
C  1.302141  7.631998  -0.658141
C  10.098375  8.371221  -0.400995
C  16.391568  6.197900  -0.608512
C  1.302141  6.197900  -0.667988
C  15.145562  5.453610  -0.541036
C  0.021251  5.453610  -0.605281
C  8.830644  7.631998  -0.204719
C  8.830644  6.197900  -0.226744
C  15.145562  4.000000  -0.448079
C  0.021251  4.000000  -0.331592
C  7.582124  5.453610  -0.459683
C  13.876357  3.272000  -0.419541
C  -1.214289  3.272000  -0.203592
C  7.582124  4.000000  -0.541022
C  13.876357  1.797813  -0.218817
C  -1.214289  1.797813  -0.082248
C  10.098375  12.724286  -0.172563
C  1.302141  10.553000  -0.231249
C  8.830644  12.029000  -0.296498
C  15.145562  9.823667  -0.415671
C  0.021251  9.823667  -0.316331
C  8.830644  10.553000  -0.553463
C  15.145562  8.371221  -0.507647
C  0.021251  8.371221  -0.598512
C  7.582124  9.823667  -0.464458
C  13.876357  7.631998  -0.529884
C  -1.214289  7.631998  -0.719895
C  7.582124  8.371221  -0.400179
C  13.876357  6.197900  -0.551058
C  -1.214289  6.197900  -0.724698
C  6.330357  7.631998  -0.498066
C  12.623562  5.453610  -0.513218
C  -2.463372  5.453610  -0.418779
C  6.330357  6.197900  -0.516226
C  12.623562  4.000000  -0.369777
C  -2.463372  4.000000  -0.231359
C  7.582124  12.724286  -0.164224
C  13.876357  10.553000  -0.371797
C  -1.214289  10.553000  -0.202208
C  6.330357  12.029000  -0.247072
C  12.623562  9.823667  -0.331486
C  -2.463372  9.823667  -0.244992
C  6.330357  10.553000  -0.385235
C  12.623562  8.371221  -0.474086
C  -2.463372  8.371221  -0.414165
C  5.067250  9.823667  -0.335259
C  -3.721000  7.631998  -0.113853
C  5.067250  8.371221  -0.484434
C  -3.721000  6.197900  -0.104402
C  5.067250  12.724286  -0.125433
C  3.815571  12.029000  -0.124575
C  3.815571  10.553000  -0.380330
C  2.546438  12.724286  0.019844
C  1.302141  12.029000  -0.057237
C  6.330357  3.272000  -0.475359
C  15.145562  12.724286  0.002001
C  0.021251  12.724286  -0.075647
C  13.876357  12.029000  -0.160959
C  -1.214289  12.029000  -0.087264
C  12.623562  12.724286  -0.159282
C  6.330357  1.797813  -0.365524
C  8.830644  1.797813  -0.414193
C  11.361143  1.797813  -0.361217
C  10.098375  1.101000  -0.310258
C  7.582124  1.101000  -0.310904
C  5.067250  1.101000  -0.253932
C  12.623562  1.101000  -0.264678
