142
frame	104
H  17.693000  13.826000  0.000000
H  19.858000  12.564000  0.000000
H  21.106000  10.363000  0.000000
H  22.366000  5.656000  0.000000
H  22.367000  8.165000  0.000000
H  19.852000  1.261000  0.000000
H  17.690000  -0.000000  0.000000
H  21.104000  3.459000  0.000000
H  2.530000  -0.005000  0.000000
H  15.160000  -0.002000  0.000000
H  0.000000  -0.000000  0.000000
H  -2.163000  1.262000  0.000000
H  -3.415000  3.463000  0.000000
H  -4.677000  8.168000  0.000000
H  -4.678000  5.662000  0.000000
H  -2.159000  12.565000  0.000000
H  10.109000  13.837000  0.000000
H  7.585000  13.838000  0.000000
H  5.062000  13.833000  0.000000
H  2.535000  13.828000  0.000000
H  15.163000  13.830000  0.000000
H  0.007000  13.825000  0.000000
H  -3.412000  10.366000  0.000000
H  12.635000  13.835000  0.000000
H  10.108000  -0.010000  0.000000
H  7.583000  -0.012000  0.000000
H  5.058000  -0.011000  0.000000
H  12.631000  -0.009000  0.000000
C  16.391568  10.553000  0.130926
C  16.391568  12.029000  -0.031137
C  17.670751  12.724286  -0.070890
C  17.670751  8.371221  0.105574
C  17.670751  9.823667  0.007382
C  18.905140  10.553000  0.004130
C  18.905140  12.029000  0.030174
C  17.670751  4.000000  0.015307
C  17.670751  5.453610  0.100729
C  18.905140  6.197900  0.057164
C  18.905140  7.631998  0.054317
C  20.154752  8.371221  0.111160
C  20.154752  9.823667  0.114646
C  18.905140  3.272000  0.012037
C  20.154752  4.000000  0.122734
C  20.154752  5.453610  0.120022
C  21.411000  6.197900  0.209876
C  21.411000  7.631998  0.205665
C  17.670751  1.101000  -0.076923
C  18.905140  1.797813  0.030213
C  5.067250  5.453610  -0.404371
C  5.067250  4.000000  -0.297006
C  3.815571  3.272000  0.041468
C  3.815571  1.797813  0.132751
C  11.361143  3.272000  -0.357027
C  2.546438  1.101000  0.075462
C  3.815571  7.631998  -0.222898
C  3.815571  6.197900  -0.233176
C  11.361143  7.631998  -0.425203
C  2.546438  5.453610  0.141462
C  11.361143  6.197900  -0.425711
C  2.546438  4.000000  0.226780
C  10.098375  5.453610  -0.635097
C  16.391568  3.272000  0.117732
C  1.302141  3.272000  0.135124
C  10.098375  4.000000  -0.411882
C  16.391568  1.797813  -0.036185
C  1.302141  1.797813  -0.031018
C  8.830644  3.272000  -0.395162
C  15.145562  1.101000  0.060753
C  0.021251  1.101000  -0.084871
C  11.361143  12.029000  -0.077313
C  2.546438  9.823667  0.256100
C  11.361143  10.553000  -0.301244
C  2.546438  8.371221  0.160129
C  10.098375  9.823667  -0.367775
C  16.391568  7.631998  0.235579
C  1.302141  7.631998  0.256783
C  10.098375  8.371221  -0.583952
C  16.391568  6.197900  0.227124
C  1.302141  6.197900  0.251539
C  15.145562  5.453610  0.120705
C  0.021251  5.453610  0.103701
C  8.830644  7.631998  -0.692861
C  8.830644  6.197900  -0.699422
C  15.145562  4.000000  0.195589
C  0.021251  4.000000  0.007492
C  7.582124  5.453610  -0.611606
C  13.876357  3.272000  0.020753
C  -1.214289  3.272000  -0.019979
C  7.582124  4.000000  -0.407612
C  13.876357  1.797813  0.112328
C  -1.214289  1.797813  0.011151
C  10.098375  12.724286  -0.086672
C  1.302141  10.553000  0.167737
C  8.830644  12.029000  -0.205687
C  15.145562  9.823667  0.237602
C  0.021251  9.823667  0.026307
C  8.830644  10.553000  -0.326669
C  15.145562  8.371221  0.126573
C  0.021251  8.371221  0.109983
C  7.582124  9.823667  -0.362694
C  13.876357  7.631998  -0.246395
C  -1.214289  7.631998  0.024154
C  7.582124  8.371221  -0.576648
C  13.876357  6.197900  -0.253617
C  -1.214289  6.197900  0.022956
C  6.330357  7.631998  -0.394720
C  12.623562  5.453610  -0.420336
C  -2.463372  5.453610  0.050015
C  6.330357  6.197900  -0.415392
C  12.623562  4.000000  -0.308396
C  -2.463372  4.000000  0.065599
C  7.582124  12.724286  -0.085276
C  13.876357  10.553000  0.062603
C  -1.214289  10.553000  -0.013884
C  6.330357  12.029000  -0.043719
C  12.623562  9.823667  -0.283290
C  -2.463372  9.823667  0.058630
C  6.330357  10.553000  -0.278622
C  12.623562  8.371221  -0.389245
C  -2.463372  8.371221  0.047398
C  5.067250  9.823667  -0.231558
C  -3.721000  7.631998  0.097335
C  5.067250  8.371221  -0.382376
C  -3.721000  6.197900  0.101399
C  5.067250  12.724286  0.174572
C  3.815571  12.029000  0.203397
C  3.815571  10.553000  0.097436
C  2.546438  12.724286  0.151985
C  1.302141  12.029000  0.020901
C  6.330357  3.272000  -0.355206
C  15.145562  12.724286  0.091460
C  0.021251  12.724286  -0.054849
C  13.876357  12.029000  0.177392
C  -1.214289  12.029000  0.016176
C  12.623562  12.724286  0.141188
C  6.330357  1.797813  -0.160879
C  8.830644  1.797813  -0.325138
C  11.361143  1.797813  -0.179529
C  10.098375  1.101000  -0.240972
C  7.582124  1.101000  -0.227664
C  5.067250  1.101000  0.073714
C  12.623562  1.101000  0.048312
