142
frame	833
H  17.693000  13.826000  0.000000
H  19.858000  12.564000  0.000000
H  21.106000  10.363000  0.000000
H  22.366000  5.656000  0.000000
H  22.367000  8.165000  0.000000
H  19.852000  1.261000  0.000000
H  17.690000  -0.000000  0.000000
H  21.104000  3.459000  0.000000
H  2.530000  -0.005000  0.000000
H  15.160000  -0.002000  0.000000
H  0.000000  -0.000000  0.000000
H  -2.163000  1.262000  0.000000
H  -3.415000  3.463000  0.000000
H  -4.677000  8.168000  0.000000
H  -4.678000  5.662000  0.000000
H  -2.159000  12.565000  0.000000
H  10.109000  13.837000  0.000000
H  7.585000  13.838000  0.000000
H  5.062000  13.833000  0.000000
H  2.535000  13.828000  0.000000
H  15.163000  13.830000  0.000000
H  0.007000  13.825000  0.000000
H  -3.412000  10.366000  0.000000
H  12.635000  13.835000  0.000000
H  10.108000  -0.010000  0.000000
H  7.583000  -0.012000  0.000000
H  5.058000  -0.011000  0.000000
H  12.631000  -0.009000  0.000000
C  16.391568  10.553000  0.104838
C  16.391568  12.029000  -0.004691
C  17.670751  12.724286  0.076768
C  17.670751  8.371221  0.154177
C  17.670751  9.823667  0.180072
C  18.905140  10.553000  0.223523
C  18.905140  12.029000  0.184534
C  17.670751  4.000000  0.168360
C  17.670751  5.453610  0.147325
C  18.905140  6.197900  0.138838
C  18.905140  7.631998  0.140240
C  20.154752  8.371221  0.199719
C  20.154752  9.823667  0.213001
C  18.905140  3.272000  0.227514
C  20.154752  4.000000  0.226123
C  20.154752  5.453610  0.218746
C  21.411000  6.197900  0.160249
C  21.411000  7.631998  0.157950
C  17.670751  1.101000  0.068219
C  18.905140  1.797813  0.192412
C  5.067250  5.453610  0.776112
C  5.067250  4.000000  0.551021
C  3.815571  3.272000  0.384308
C  3.815571  1.797813  0.144212
C  11.361143  3.272000  0.337285
C  2.546438  1.101000  -0.072648
C  3.815571  7.631998  0.967142
C  3.815571  6.197900  0.955071
C  11.361143  7.631998  0.691632
C  2.546438  5.453610  0.620145
C  11.361143  6.197900  0.678882
C  2.546438  4.000000  0.393881
C  10.098375  5.453610  0.454936
C  16.391568  3.272000  0.096634
C  1.302141  3.272000  0.076329
C  10.098375  4.000000  0.364487
C  16.391568  1.797813  -0.038847
C  1.302141  1.797813  -0.044391
C  8.830644  3.272000  0.263230
C  15.145562  1.101000  -0.063980
C  0.021251  1.101000  0.064237
C  11.361143  12.029000  0.307883
C  2.546438  9.823667  0.433355
C  11.361143  10.553000  0.434550
C  2.546438  8.371221  0.631273
C  10.098375  9.823667  0.430697
C  16.391568  7.631998  0.299983
C  1.302141  7.631998  0.325321
C  10.098375  8.371221  0.480050
C  16.391568  6.197900  0.289583
C  1.302141  6.197900  0.320891
C  15.145562  5.453610  0.584026
C  0.021251  5.453610  0.156080
C  8.830644  7.631998  0.515335
C  8.830644  6.197900  0.505470
C  15.145562  4.000000  0.375733
C  0.021251  4.000000  0.163119
C  7.582124  5.453610  0.458700
C  13.876357  3.272000  0.357753
C  -1.214289  3.272000  0.217836
C  7.582124  4.000000  0.373412
C  13.876357  1.797813  0.121385
C  -1.214289  1.797813  0.178586
C  10.098375  12.724286  0.294687
C  1.302141  10.553000  0.112445
C  8.830644  12.029000  0.366169
C  15.145562  9.823667  0.407595
C  0.021251  9.823667  0.186309
C  8.830644  10.553000  0.346877
C  15.145562  8.371221  0.601420
C  0.021251  8.371221  0.155939
C  7.582124  9.823667  0.452716
C  13.876357  7.631998  0.938645
C  -1.214289  7.631998  0.132543
C  7.582124  8.371221  0.493888
C  13.876357  6.197900  0.933721
C  -1.214289  6.197900  0.124016
C  6.330357  7.631998  0.705999
C  12.623562  5.453610  0.757423
C  -2.463372  5.453610  0.155189
C  6.330357  6.197900  0.684748
C  12.623562  4.000000  0.530396
C  -2.463372  4.000000  0.182201
C  7.582124  12.724286  0.312234
C  13.876357  10.553000  0.422151
C  -1.214289  10.553000  0.218865
C  6.330357  12.029000  0.342780
C  12.623562  9.823667  0.593186
C  -2.463372  9.823667  0.175094
C  6.330357  10.553000  0.456092
C  12.623562  8.371221  0.782723
C  -2.463372  8.371221  0.138119
C  5.067250  9.823667  0.615797
C  -3.721000  7.631998  0.037935
C  5.067250  8.371221  0.813203
C  -3.721000  6.197900  0.049270
C  5.067250  12.724286  0.207455
C  3.815571  12.029000  0.238491
C  3.815571  10.553000  0.459343
C  2.546438  12.724286  0.005671
C  1.302141  12.029000  0.003688
C  6.330357  3.272000  0.375795
C  15.145562  12.724286  -0.003435
C  0.021251  12.724286  0.117180
C  13.876357  12.029000  0.183027
C  -1.214289  12.029000  0.195761
C  12.623562  12.724286  0.170253
C  6.330357  1.797813  0.222668
C  8.830644  1.797813  0.245464
C  11.361143  1.797813  0.213519
C  10.098375  1.101000  0.152318
C  7.582124  1.101000  0.181629
C  5.067250  1.101000  0.099027
C  12.623562  1.101000  0.085713
