142
frame	252
H  17.693000  13.826000  0.000000
H  19.858000  12.564000  0.000000
H  21.106000  10.363000  0.000000
H  22.366000  5.656000  0.000000
H  22.367000  8.165000  0.000000
H  19.852000  1.261000  0.000000
H  17.690000  -0.000000  0.000000
H  21.104000  3.459000  0.000000
H  2.530000  -0.005000  0.000000
H  15.160000  -0.002000  0.000000
H  0.000000  -0.000000  0.000000
H  -2.163000  1.262000  0.000000
H  -3.415000  3.463000  0.000000
H  -4.677000  8.168000  0.000000
H  -4.678000  5.662000  0.000000
H  -2.159000  12.565000  0.000000
H  10.109000  13.837000  0.000000
H  7.585000  13.838000  0.000000
H  5.062000  13.833000  0.000000
H  2.535000  13.828000  0.000000
H  15.163000  13.830000  0.000000
H  0.007000  13.825000  0.000000
H  -3.412000  10.366000  0.000000
H  12.635000  13.835000  0.000000
H  10.108000  -0.010000  0.000000
H  7.583000  -0.012000  0.000000
H  5.058000  -0.011000  0.000000
H  12.631000  -0.009000  0.000000
C  16.391568  10.553000  -0.315717
C  16.391568  12.029000  -0.285267
C  17.670751  12.724286  -0.072919
C  17.670751  8.371221  0.021718
C  17.670751  9.823667  -0.266530
C  18.905140  10.553000  -0.197362
C  18.905140  12.029000  -0.063508
C  17.670751  4.000000  -0.268001
C  17.670751  5.453610  0.015626
C  18.905140  6.197900  0.190877
C  18.905140  7.631998  0.183077
C  20.154752  8.371221  0.201573
C  20.154752  9.823667  0.096435
C  18.905140  3.272000  -0.175903
C  20.154752  4.000000  0.096258
C  20.154752  5.453610  0.206728
C  21.411000  6.197900  0.254622
C  21.411000  7.631998  0.270505
C  17.670751  1.101000  -0.077767
C  18.905140  1.797813  -0.056643
C  5.067250  5.453610  -0.794096
C  5.067250  4.000000  -0.521321
C  3.815571  3.272000  -0.272699
C  3.815571  1.797813  -0.164526
C  11.361143  3.272000  -0.470122
C  2.546438  1.101000  -0.239083
C  3.815571  7.631998  -0.714878
C  3.815571  6.197900  -0.719056
C  11.361143  7.631998  -0.768601
C  2.546438  5.453610  -0.345067
C  11.361143  6.197900  -0.792338
C  2.546438  4.000000  -0.273290
C  10.098375  5.453610  -0.749969
C  16.391568  3.272000  -0.340603
C  1.302141  3.272000  -0.359183
C  10.098375  4.000000  -0.592260
C  16.391568  1.797813  -0.297905
C  1.302141  1.797813  -0.313503
C  8.830644  3.272000  -0.480592
C  15.145562  1.101000  -0.243348
C  0.021251  1.101000  -0.100003
C  11.361143  12.029000  -0.141412
C  2.546438  9.823667  -0.233039
C  11.361143  10.553000  -0.409752
C  2.546438  8.371221  -0.325744
C  10.098375  9.823667  -0.525488
C  16.391568  7.631998  -0.017810
C  1.302141  7.631998  -0.040186
C  10.098375  8.371221  -0.712872
C  16.391568  6.197900  -0.018661
C  1.302141  6.197900  -0.055164
C  15.145562  5.453610  -0.318388
C  0.021251  5.453610  -0.028758
C  8.830644  7.631998  -0.788172
C  8.830644  6.197900  -0.816864
C  15.145562  4.000000  -0.246799
C  0.021251  4.000000  -0.306710
C  7.582124  5.453610  -0.754143
C  13.876357  3.272000  -0.266679
C  -1.214289  3.272000  -0.226574
C  7.582124  4.000000  -0.597542
C  13.876357  1.797813  -0.167497
C  -1.214289  1.797813  -0.070299
C  10.098375  12.724286  0.014201
C  1.302141  10.553000  -0.324574
C  8.830644  12.029000  -0.151680
C  15.145562  9.823667  -0.228865
C  0.021251  9.823667  -0.276142
C  8.830644  10.553000  -0.395159
C  15.145562  8.371221  -0.306066
C  0.021251  8.371221  -0.005585
C  7.582124  9.823667  -0.524770
C  13.876357  7.631998  -0.707840
C  -1.214289  7.631998  0.116416
C  7.582124  8.371221  -0.714184
C  13.876357  6.197900  -0.712025
C  -1.214289  6.197900  0.099184
C  6.330357  7.631998  -0.782815
C  12.623562  5.453610  -0.773967
C  -2.463372  5.453610  0.124888
C  6.330357  6.197900  -0.797557
C  12.623562  4.000000  -0.510451
C  -2.463372  4.000000  0.046674
C  7.582124  12.724286  0.028721
C  13.876357  10.553000  -0.217366
C  -1.214289  10.553000  -0.228658
C  6.330357  12.029000  -0.118171
C  12.623562  9.823667  -0.477284
C  -2.463372  9.823667  0.029117
C  6.330357  10.553000  -0.387563
C  12.623562  8.371221  -0.760959
C  -2.463372  8.371221  0.132426
C  5.067250  9.823667  -0.465640
C  -3.721000  7.631998  0.133773
C  5.067250  8.371221  -0.765890
C  -3.721000  6.197900  0.139821
C  5.067250  12.724286  0.005472
C  3.815571  12.029000  -0.072339
C  3.815571  10.553000  -0.196200
C  2.546438  12.724286  -0.169136
C  1.302141  12.029000  -0.264541
C  6.330357  3.272000  -0.477915
C  15.145562  12.724286  -0.203693
C  0.021251  12.724286  -0.072635
C  13.876357  12.029000  -0.104473
C  -1.214289  12.029000  -0.074953
C  12.623562  12.724286  -0.032376
C  6.330357  1.797813  -0.237745
C  8.830644  1.797813  -0.286327
C  11.361143  1.797813  -0.247731
C  10.098375  1.101000  -0.134325
C  7.582124  1.101000  -0.129791
C  5.067250  1.101000  -0.118625
C  12.623562  1.101000  -0.138292
