142
frame	101
H  17.693000  13.826000  0.000000
H  19.858000  12.564000  0.000000
H  21.106000  10.363000  0.000000
H  22.366000  5.656000  0.000000
H  22.367000  8.165000  0.000000
H  19.852000  1.261000  0.000000
H  17.690000  -0.000000  0.000000
H  21.104000  3.459000  0.000000
H  2.530000  -0.005000  0.000000
H  15.160000  -0.002000  0.000000
H  0.000000  -0.000000  0.000000
H  -2.163000  1.262000  0.000000
H  -3.415000  3.463000  0.000000
H  -4.677000  8.168000  0.000000
H  -4.678000  5.662000  0.000000
H  -2.159000  12.565000  0.000000
H  10.109000  13.837000  0.000000
H  7.585000  13.838000  0.000000
H  5.062000  13.833000  0.000000
H  2.535000  13.828000  0.000000
H  15.163000  13.830000  0.000000
H  0.007000  13.825000  0.000000
H  -3.412000  10.366000  0.000000
H  12.635000  13.835000  0.000000
H  10.108000  -0.010000  0.000000
H  7.583000  -0.012000  0.000000
H  5.058000  -0.011000  0.000000
H  12.631000  -0.009000  0.000000
C  16.391568  10.553000  0.102962
C  16.391568  12.029000  -0.051208
C  17.670751  12.724286  -0.056162
C  17.670751  8.371221  0.086630
C  17.670751  9.823667  -0.009739
C  18.905140  10.553000  0.016895
C  18.905140  12.029000  0.049880
C  17.670751  4.000000  -0.001949
C  17.670751  5.453610  0.081922
C  18.905140  6.197900  0.053930
C  18.905140  7.631998  0.050112
C  20.154752  8.371221  0.117866
C  20.154752  9.823667  0.126496
C  18.905140  3.272000  0.022564
C  20.154752  4.000000  0.134473
C  20.154752  5.453610  0.125615
C  21.411000  6.197900  0.212693
C  21.411000  7.631998  0.209481
C  17.670751  1.101000  -0.064194
C  18.905140  1.797813  0.049708
C  5.067250  5.453610  -0.396365
C  5.067250  4.000000  -0.281648
C  3.815571  3.272000  0.063677
C  3.815571  1.797813  0.138671
C  11.361143  3.272000  -0.348880
C  2.546438  1.101000  0.051553
C  3.815571  7.631998  -0.189657
C  3.815571  6.197900  -0.201991
C  11.361143  7.631998  -0.438077
C  2.546438  5.453610  0.163369
C  11.361143  6.197900  -0.441632
C  2.546438  4.000000  0.244605
C  10.098375  5.453610  -0.620994
C  16.391568  3.272000  0.092785
C  1.302141  3.272000  0.108063
C  10.098375  4.000000  -0.409410
C  16.391568  1.797813  -0.059461
C  1.302141  1.797813  -0.054827
C  8.830644  3.272000  -0.417056
C  15.145562  1.101000  0.037813
C  0.021251  1.101000  -0.071583
C  11.361143  12.029000  -0.035174
C  2.546438  9.823667  0.272876
C  11.361143  10.553000  -0.289259
C  2.546438  8.371221  0.183067
C  10.098375  9.823667  -0.366023
C  16.391568  7.631998  0.226926
C  1.302141  7.631998  0.247731
C  10.098375  8.371221  -0.575203
C  16.391568  6.197900  0.216415
C  1.302141  6.197900  0.243462
C  15.145562  5.453610  0.140924
C  0.021251  5.453610  0.082702
C  8.830644  7.631998  -0.676994
C  8.830644  6.197900  -0.683446
C  15.145562  4.000000  0.209856
C  0.021251  4.000000  -0.011278
C  7.582124  5.453610  -0.601398
C  13.876357  3.272000  0.040656
C  -1.214289  3.272000  -0.008786
C  7.582124  4.000000  -0.408354
C  13.876357  1.797813  0.116637
C  -1.214289  1.797813  0.032369
C  10.098375  12.724286  -0.044693
C  1.302141  10.553000  0.141754
C  8.830644  12.029000  -0.155603
C  15.145562  9.823667  0.250911
C  0.021251  9.823667  0.007589
C  8.830644  10.553000  -0.349652
C  15.145562  8.371221  0.148931
C  0.021251  8.371221  0.090030
C  7.582124  9.823667  -0.362199
C  13.876357  7.631998  -0.219627
C  -1.214289  7.631998  0.020327
C  7.582124  8.371221  -0.561690
C  13.876357  6.197900  -0.219822
C  -1.214289  6.197900  0.019108
C  6.330357  7.631998  -0.411021
C  12.623562  5.453610  -0.414337
C  -2.463372  5.453610  0.057242
C  6.330357  6.197900  -0.428523
C  12.623562  4.000000  -0.291805
C  -2.463372  4.000000  0.078675
C  7.582124  12.724286  -0.045320
C  13.876357  10.553000  0.086386
C  -1.214289  10.553000  -0.002532
C  6.330357  12.029000  0.001383
C  12.623562  9.823667  -0.266788
C  -2.463372  9.823667  0.071789
C  6.330357  10.553000  -0.266619
C  12.623562  8.371221  -0.381246
C  -2.463372  8.371221  0.054664
C  5.067250  9.823667  -0.218136
C  -3.721000  7.631998  0.100459
C  5.067250  8.371221  -0.374268
C  -3.721000  6.197900  0.105489
C  5.067250  12.724286  0.175849
C  3.815571  12.029000  0.212271
C  3.815571  10.553000  0.117494
C  2.546438  12.724286  0.129034
C  1.302141  12.029000  -0.003782
C  6.330357  3.272000  -0.344116
C  15.145562  12.724286  0.066486
C  0.021251  12.724286  -0.042631
C  13.876357  12.029000  0.179520
C  -1.214289  12.029000  0.037388
C  12.623562  12.724286  0.144157
C  6.330357  1.797813  -0.112862
C  8.830644  1.797813  -0.273974
C  11.361143  1.797813  -0.133488
C  10.098375  1.101000  -0.200932
C  7.582124  1.101000  -0.187635
C  5.067250  1.101000  0.075871
C  12.623562  1.101000  0.052158
