142
frame	217
H  17.693000  13.826000  0.000000
H  19.858000  12.564000  0.000000
H  21.106000  10.363000  0.000000
H  22.366000  5.656000  0.000000
H  22.367000  8.165000  0.000000
H  19.852000  1.261000  0.000000
H  17.690000  -0.000000  0.000000
H  21.104000  3.459000  0.000000
H  2.530000  -0.005000  0.000000
H  15.160000  -0.002000  0.000000
H  0.000000  -0.000000  0.000000
H  -2.163000  1.262000  0.000000
H  -3.415000  3.463000  0.000000
H  -4.677000  8.168000  0.000000
H  -4.678000  5.662000  0.000000
H  -2.159000  12.565000  0.000000
H  10.109000  13.837000  0.000000
H  7.585000  13.838000  0.000000
H  5.062000  13.833000  0.000000
H  2.535000  13.828000  0.000000
H  15.163000  13.830000  0.000000
H  0.007000  13.825000  0.000000
H  -3.412000  10.366000  0.000000
H  12.635000  13.835000  0.000000
H  10.108000  -0.010000  0.000000
H  7.583000  -0.012000  0.000000
H  5.058000  -0.011000  0.000000
H  12.631000  -0.009000  0.000000
C  16.391568  10.553000  -0.115887
C  16.391568  12.029000  -0.064668
C  17.670751  12.724286  -0.100733
C  17.670751  8.371221  0.198907
C  17.670751  9.823667  0.065274
C  18.905140  10.553000  -0.012186
C  18.905140  12.029000  -0.104490
C  17.670751  4.000000  0.051054
C  17.670751  5.453610  0.186848
C  18.905140  6.197900  0.392568
C  18.905140  7.631998  0.402785
C  20.154752  8.371221  0.294555
C  20.154752  9.823667  0.074463
C  18.905140  3.272000  0.006504
C  20.154752  4.000000  0.087597
C  20.154752  5.453610  0.304396
C  21.411000  6.197900  0.339418
C  21.411000  7.631998  0.319395
C  17.670751  1.101000  -0.088792
C  18.905140  1.797813  -0.089818
C  5.067250  5.453610  -0.587867
C  5.067250  4.000000  -0.516055
C  3.815571  3.272000  -0.507267
C  3.815571  1.797813  -0.321374
C  11.361143  3.272000  -0.514450
C  2.546438  1.101000  -0.088705
C  3.815571  7.631998  -0.434301
C  3.815571  6.197900  -0.450343
C  11.361143  7.631998  -0.783658
C  2.546438  5.453610  -0.364890
C  11.361143  6.197900  -0.788736
C  2.546438  4.000000  -0.391023
C  10.098375  5.453610  -0.736477
C  16.391568  3.272000  -0.129666
C  1.302141  3.272000  -0.148123
C  10.098375  4.000000  -0.543142
C  16.391568  1.797813  -0.082201
C  1.302141  1.797813  -0.086270
C  8.830644  3.272000  -0.520781
C  15.145562  1.101000  -0.096543
C  0.021251  1.101000  -0.108595
C  11.361143  12.029000  -0.276454
C  2.546438  9.823667  -0.342048
C  11.361143  10.553000  -0.430786
C  2.546438  8.371221  -0.342419
C  10.098375  9.823667  -0.473978
C  16.391568  7.631998  -0.081393
C  1.302141  7.631998  -0.091579
C  10.098375  8.371221  -0.719391
C  16.391568  6.197900  -0.083774
C  1.302141  6.197900  -0.105048
C  15.145562  5.453610  -0.359869
C  0.021251  5.453610  0.166256
C  8.830644  7.631998  -0.750717
C  8.830644  6.197900  -0.758900
C  15.145562  4.000000  -0.379324
C  0.021251  4.000000  0.024962
C  7.582124  5.453610  -0.743372
C  13.876357  3.272000  -0.512175
C  -1.214289  3.272000  -0.052027
C  7.582124  4.000000  -0.547387
C  13.876357  1.797813  -0.326360
C  -1.214289  1.797813  -0.131810
C  10.098375  12.724286  -0.231093
C  1.302141  10.553000  -0.119484
C  8.830644  12.029000  -0.233058
C  15.145562  9.823667  -0.368265
C  0.021251  9.823667  0.035106
C  8.830644  10.553000  -0.419428
C  15.145562  8.371221  -0.342718
C  0.021251  8.371221  0.166053
C  7.582124  9.823667  -0.480349
C  13.876357  7.631998  -0.424335
C  -1.214289  7.631998  0.357851
C  7.582124  8.371221  -0.705026
C  13.876357  6.197900  -0.430985
C  -1.214289  6.197900  0.366562
C  6.330357  7.631998  -0.784938
C  12.623562  5.453610  -0.571049
C  -2.463372  5.453610  0.228640
C  6.330357  6.197900  -0.796171
C  12.623562  4.000000  -0.518564
C  -2.463372  4.000000  0.006425
C  7.582124  12.724286  -0.218709
C  13.876357  10.553000  -0.468610
C  -1.214289  10.553000  -0.029347
C  6.330357  12.029000  -0.253421
C  12.623562  9.823667  -0.475249
C  -2.463372  9.823667  0.003871
C  6.330357  10.553000  -0.420909
C  12.623562  8.371221  -0.543755
C  -2.463372  8.371221  0.218144
C  5.067250  9.823667  -0.460038
C  -3.721000  7.631998  0.219606
C  5.067250  8.371221  -0.545315
C  -3.721000  6.197900  0.217960
C  5.067250  12.724286  -0.240277
C  3.815571  12.029000  -0.239756
C  3.815571  10.553000  -0.452470
C  2.546438  12.724286  -0.009068
C  1.302141  12.029000  -0.038884
C  6.330357  3.272000  -0.507485
C  15.145562  12.724286  -0.048271
C  0.021251  12.724286  -0.081220
C  13.876357  12.029000  -0.277234
C  -1.214289  12.029000  -0.116140
C  12.623562  12.724286  -0.280322
C  6.330357  1.797813  -0.371901
C  8.830644  1.797813  -0.351747
C  11.361143  1.797813  -0.372157
C  10.098375  1.101000  -0.357544
C  7.582124  1.101000  -0.356408
C  5.067250  1.101000  -0.357323
C  12.623562  1.101000  -0.362515
