142
frame	117
H  17.693000  13.826000  0.000000
H  19.858000  12.564000  0.000000
H  21.106000  10.363000  0.000000
H  22.366000  5.656000  0.000000
H  22.367000  8.165000  0.000000
H  19.852000  1.261000  0.000000
H  17.690000  -0.000000  0.000000
H  21.104000  3.459000  0.000000
H  2.530000  -0.005000  0.000000
H  15.160000  -0.002000  0.000000
H  0.000000  -0.000000  0.000000
H  -2.163000  1.262000  0.000000
H  -3.415000  3.463000  0.000000
H  -4.677000  8.168000  0.000000
H  -4.678000  5.662000  0.000000
H  -2.159000  12.565000  0.000000
H  10.109000  13.837000  0.000000
H  7.585000  13.838000  0.000000
H  5.062000  13.833000  0.000000
H  2.535000  13.828000  0.000000
H  15.163000  13.830000  0.000000
H  0.007000  13.825000  0.000000
H  -3.412000  10.366000  0.000000
H  12.635000  13.835000  0.000000
H  10.108000  -0.010000  0.000000
H  7.583000  -0.012000  0.000000
H  5.058000  -0.011000  0.000000
H  12.631000  -0.009000  0.000000
C  16.391568  10.553000  0.210469
C  16.391568  12.029000  0.117444
C  17.670751  12.724286  -0.080911
C  17.670751  8.371221  0.189268
C  17.670751  9.823667  0.135900
C  18.905140  10.553000  -0.018208
C  18.905140  12.029000  -0.083541
C  17.670751  4.000000  0.131427
C  17.670751  5.453610  0.186019
C  18.905140  6.197900  0.100381
C  18.905140  7.631998  0.101552
C  20.154752  8.371221  0.085860
C  20.154752  9.823667  0.040056
C  18.905140  3.272000  -0.006113
C  20.154752  4.000000  0.055370
C  20.154752  5.453610  0.093697
C  21.411000  6.197900  0.187465
C  21.411000  7.631998  0.180426
C  17.670751  1.101000  -0.073909
C  18.905140  1.797813  -0.076550
C  5.067250  5.453610  -0.379743
C  5.067250  4.000000  -0.323790
C  3.815571  3.272000  -0.053916
C  3.815571  1.797813  0.078152
C  11.361143  3.272000  -0.369082
C  2.546438  1.101000  0.142167
C  3.815571  7.631998  -0.287153
C  3.815571  6.197900  -0.292955
C  11.361143  7.631998  -0.458175
C  2.546438  5.453610  0.016230
C  11.361143  6.197900  -0.473775
C  2.546438  4.000000  0.080580
C  10.098375  5.453610  -0.588936
C  16.391568  3.272000  0.187481
C  1.302141  3.272000  0.206728
C  10.098375  4.000000  -0.492332
C  16.391568  1.797813  0.109392
C  1.302141  1.797813  0.121410
C  8.830644  3.272000  -0.366324
C  15.145562  1.101000  0.127715
C  0.021251  1.101000  -0.082477
C  11.361143  12.029000  -0.229872
C  2.546438  9.823667  0.116484
C  11.361143  10.553000  -0.323149
C  2.546438  8.371221  0.032443
C  10.098375  9.823667  -0.435391
C  16.391568  7.631998  0.209279
C  1.302141  7.631998  0.233195
C  10.098375  8.371221  -0.555737
C  16.391568  6.197900  0.215209
C  1.302141  6.197900  0.224223
C  15.145562  5.453610  -0.001028
C  0.021251  5.453610  0.191574
C  8.830644  7.631998  -0.717143
C  8.830644  6.197900  -0.741606
C  15.145562  4.000000  0.070512
C  0.021251  4.000000  0.136361
C  7.582124  5.453610  -0.571138
C  13.876357  3.272000  -0.067425
C  -1.214289  3.272000  -0.037738
C  7.582124  4.000000  -0.478708
C  13.876357  1.797813  0.061574
C  -1.214289  1.797813  -0.101819
C  10.098375  12.724286  -0.250499
C  1.302141  10.553000  0.235771
C  8.830644  12.029000  -0.367551
C  15.145562  9.823667  0.095207
C  0.021251  9.823667  0.150699
C  8.830644  10.553000  -0.298212
C  15.145562  8.371221  0.013096
C  0.021251  8.371221  0.198816
C  7.582124  9.823667  -0.425634
C  13.876357  7.631998  -0.294817
C  -1.214289  7.631998  0.070693
C  7.582124  8.371221  -0.557870
C  13.876357  6.197900  -0.319691
C  -1.214289  6.197900  0.071550
C  6.330357  7.631998  -0.436828
C  12.623562  5.453610  -0.392273
C  -2.463372  5.453610  0.024490
C  6.330357  6.197900  -0.457187
C  12.623562  4.000000  -0.340688
C  -2.463372  4.000000  -0.011075
C  7.582124  12.724286  -0.232668
C  13.876357  10.553000  -0.032269
C  -1.214289  10.553000  -0.032053
C  6.330357  12.029000  -0.215617
C  12.623562  9.823667  -0.302778
C  -2.463372  9.823667  -0.015478
C  6.330357  10.553000  -0.298530
C  12.623562  8.371221  -0.386884
C  -2.463372  8.371221  0.021441
C  5.067250  9.823667  -0.266066
C  -3.721000  7.631998  0.070711
C  5.067250  8.371221  -0.350183
C  -3.721000  6.197900  0.072981
C  5.067250  12.724286  0.087708
C  3.815571  12.029000  0.148161
C  3.815571  10.553000  0.009871
C  2.546438  12.724286  0.209167
C  1.302141  12.029000  0.168483
C  6.330357  3.272000  -0.365391
C  15.145562  12.724286  0.170957
C  0.021251  12.724286  -0.048475
C  13.876357  12.029000  0.124693
C  -1.214289  12.029000  -0.093759
C  12.623562  12.724286  0.052780
C  6.330357  1.797813  -0.333040
C  8.830644  1.797813  -0.496406
C  11.361143  1.797813  -0.340298
C  10.098375  1.101000  -0.391374
C  7.582124  1.101000  -0.381465
C  5.067250  1.101000  -0.027914
C  12.623562  1.101000  -0.052308
