142
frame	240
H  17.693000  13.826000  0.000000
H  19.858000  12.564000  0.000000
H  21.106000  10.363000  0.000000
H  22.366000  5.656000  0.000000
H  22.367000  8.165000  0.000000
H  19.852000  1.261000  0.000000
H  17.690000  -0.000000  0.000000
H  21.104000  3.459000  0.000000
H  2.530000  -0.005000  0.000000
H  15.160000  -0.002000  0.000000
H  0.000000  -0.000000  0.000000
H  -2.163000  1.262000  0.000000
H  -3.415000  3.463000  0.000000
H  -4.677000  8.168000  0.000000
H  -4.678000  5.662000  0.000000
H  -2.159000  12.565000  0.000000
H  10.109000  13.837000  0.000000
H  7.585000  13.838000  0.000000
H  5.062000  13.833000  0.000000
H  2.535000  13.828000  0.000000
H  15.163000  13.830000  0.000000
H  0.007000  13.825000  0.000000
H  -3.412000  10.366000  0.000000
H  12.635000  13.835000  0.000000
H  10.108000  -0.010000  0.000000
H  7.583000  -0.012000  0.000000
H  5.058000  -0.011000  0.000000
H  12.631000  -0.009000  0.000000
C  16.391568  10.553000  -0.295757
C  16.391568  12.029000  -0.204715
C  17.670751  12.724286  -0.019390
C  17.670751  8.371221  0.102253
C  17.670751  9.823667  -0.268701
C  18.905140  10.553000  -0.200071
C  18.905140  12.029000  -0.058542
C  17.670751  4.000000  -0.266942
C  17.670751  5.453610  0.084467
C  18.905140  6.197900  0.401742
C  18.905140  7.631998  0.405617
C  20.154752  8.371221  0.255991
C  20.154752  9.823667  0.005551
C  18.905140  3.272000  -0.195052
C  20.154752  4.000000  0.028974
C  20.154752  5.453610  0.253587
C  21.411000  6.197900  0.222816
C  21.411000  7.631998  0.233791
C  17.670751  1.101000  -0.026522
C  18.905140  1.797813  -0.036996
C  5.067250  5.453610  -0.761251
C  5.067250  4.000000  -0.517805
C  3.815571  3.272000  -0.270252
C  3.815571  1.797813  -0.251165
C  11.361143  3.272000  -0.454277
C  2.546438  1.101000  -0.217156
C  3.815571  7.631998  -0.723331
C  3.815571  6.197900  -0.738113
C  11.361143  7.631998  -0.753382
C  2.546438  5.453610  -0.334515
C  11.361143  6.197900  -0.770718
C  2.546438  4.000000  -0.259904
C  10.098375  5.453610  -0.739524
C  16.391568  3.272000  -0.306463
C  1.302141  3.272000  -0.328688
C  10.098375  4.000000  -0.592170
C  16.391568  1.797813  -0.217251
C  1.302141  1.797813  -0.239386
C  8.830644  3.272000  -0.416304
C  15.145562  1.101000  -0.215424
C  0.021251  1.101000  -0.034232
C  11.361143  12.029000  -0.253625
C  2.546438  9.823667  -0.229860
C  11.361143  10.553000  -0.389362
C  2.546438  8.371221  -0.307000
C  10.098375  9.823667  -0.522748
C  16.391568  7.631998  0.023464
C  1.302141  7.631998  -0.000829
C  10.098375  8.371221  -0.702996
C  16.391568  6.197900  0.014341
C  1.302141  6.197900  -0.008941
C  15.145562  5.453610  -0.302426
C  0.021251  5.453610  0.047154
C  8.830644  7.631998  -0.823068
C  8.830644  6.197900  -0.848430
C  15.145562  4.000000  -0.254310
C  0.021251  4.000000  -0.312305
C  7.582124  5.453610  -0.740233
C  13.876357  3.272000  -0.273656
C  -1.214289  3.272000  -0.241840
C  7.582124  4.000000  -0.590979
C  13.876357  1.797813  -0.263567
C  -1.214289  1.797813  -0.065270
C  10.098375  12.724286  -0.064800
C  1.302141  10.553000  -0.289474
C  8.830644  12.029000  -0.177189
C  15.145562  9.823667  -0.225158
C  0.021251  9.823667  -0.282990
C  8.830644  10.553000  -0.334249
C  15.145562  8.371221  -0.299591
C  0.021251  8.371221  0.068151
C  7.582124  9.823667  -0.506384
C  13.876357  7.631998  -0.717723
C  -1.214289  7.631998  0.349612
C  7.582124  8.371221  -0.715579
C  13.876357  6.197900  -0.717637
C  -1.214289  6.197900  0.342692
C  6.330357  7.631998  -0.760371
C  12.623562  5.453610  -0.743021
C  -2.463372  5.453610  0.179319
C  6.330357  6.197900  -0.779747
C  12.623562  4.000000  -0.505931
C  -2.463372  4.000000  -0.038065
C  7.582124  12.724286  -0.048318
C  13.876357  10.553000  -0.230931
C  -1.214289  10.553000  -0.241415
C  6.330357  12.029000  -0.235498
C  12.623562  9.823667  -0.454698
C  -2.463372  9.823667  -0.040168
C  6.330357  10.553000  -0.376839
C  12.623562  8.371221  -0.743619
C  -2.463372  8.371221  0.174677
C  5.067250  9.823667  -0.450543
C  -3.721000  7.631998  0.096360
C  5.067250  8.371221  -0.738994
C  -3.721000  6.197900  0.112573
C  5.067250  12.724286  -0.060769
C  3.815571  12.029000  -0.162699
C  3.815571  10.553000  -0.205033
C  2.546438  12.724286  -0.141212
C  1.302141  12.029000  -0.194473
C  6.330357  3.272000  -0.464891
C  15.145562  12.724286  -0.179800
C  0.021251  12.724286  -0.012275
C  13.876357  12.029000  -0.200599
C  -1.214289  12.029000  -0.064097
C  12.623562  12.724286  -0.103719
C  6.330357  1.797813  -0.352561
C  8.830644  1.797813  -0.315145
C  11.361143  1.797813  -0.361477
C  10.098375  1.101000  -0.204754
C  7.582124  1.101000  -0.195499
C  5.067250  1.101000  -0.177975
C  12.623562  1.101000  -0.191652
