142
frame	567
H  17.693000  13.826000  0.000000
H  19.858000  12.564000  0.000000
H  21.106000  10.363000  0.000000
H  22.366000  5.656000  0.000000
H  22.367000  8.165000  0.000000
H  19.852000  1.261000  0.000000
H  17.690000  -0.000000  0.000000
H  21.104000  3.459000  0.000000
H  2.530000  -0.005000  0.000000
H  15.160000  -0.002000  0.000000
H  0.000000  -0.000000  0.000000
H  -2.163000  1.262000  0.000000
H  -3.415000  3.463000  0.000000
H  -4.677000  8.168000  0.000000
H  -4.678000  5.662000  0.000000
H  -2.159000  12.565000  0.000000
H  10.109000  13.837000  0.000000
H  7.585000  13.838000  0.000000
H  5.062000  13.833000  0.000000
H  2.535000  13.828000  0.000000
H  15.163000  13.830000  0.000000
H  0.007000  13.825000  0.000000
H  -3.412000  10.366000  0.000000
H  12.635000  13.835000  0.000000
H  10.108000  -0.010000  0.000000
H  7.583000  -0.012000  0.000000
H  5.058000  -0.011000  0.000000
H  12.631000  -0.009000  0.000000
C  16.391568  10.553000  -0.000679
C  16.391568  12.029000  0.084116
C  17.670751  12.724286  0.077748
C  17.670751  8.371221  -0.094705
C  17.670751  9.823667  0.071204
C  18.905140  10.553000  0.244570
C  18.905140  12.029000  0.200749
C  17.670751  4.000000  0.071663
C  17.670751  5.453610  -0.096197
C  18.905140  6.197900  -0.131174
C  18.905140  7.631998  -0.144964
C  20.154752  8.371221  0.091514
C  20.154752  9.823667  0.250236
C  18.905140  3.272000  0.250837
C  20.154752  4.000000  0.248779
C  20.154752  5.453610  0.082052
C  21.411000  6.197900  0.149722
C  21.411000  7.631998  0.153239
C  17.670751  1.101000  0.092976
C  18.905140  1.797813  0.221067
C  5.067250  5.453610  0.086362
C  5.067250  4.000000  0.023618
C  3.815571  3.272000  -0.036689
C  3.815571  1.797813  -0.087523
C  11.361143  3.272000  -0.227710
C  2.546438  1.101000  0.008399
C  3.815571  7.631998  0.210735
C  3.815571  6.197900  0.191736
C  11.361143  7.631998  -0.223769
C  2.546438  5.453610  0.051054
C  11.361143  6.197900  -0.256825
C  2.546438  4.000000  -0.101943
C  10.098375  5.453610  -0.333528
C  16.391568  3.272000  -0.020098
C  1.302141  3.272000  -0.044973
C  10.098375  4.000000  -0.447544
C  16.391568  1.797813  0.046144
C  1.302141  1.797813  0.037880
C  8.830644  3.272000  -0.351895
C  15.145562  1.101000  0.011577
C  0.021251  1.101000  0.066307
C  11.361143  12.029000  -0.221272
C  2.546438  9.823667  -0.076353
C  11.361143  10.553000  -0.184952
C  2.546438  8.371221  0.060867
C  10.098375  9.823667  -0.397742
C  16.391568  7.631998  -0.056773
C  1.302141  7.631998  -0.065093
C  10.098375  8.371221  -0.298928
C  16.391568  6.197900  -0.056564
C  1.302141  6.197900  -0.060436
C  15.145562  5.453610  0.066244
C  0.021251  5.453610  -0.112441
C  8.830644  7.631998  -0.154714
C  8.830644  6.197900  -0.176009
C  15.145562  4.000000  -0.080496
C  0.021251  4.000000  0.046610
C  7.582124  5.453610  -0.342458
C  13.876357  3.272000  -0.008738
C  -1.214289  3.272000  0.216561
C  7.582124  4.000000  -0.438735
C  13.876357  1.797813  -0.089500
C  -1.214289  1.797813  0.199565
C  10.098375  12.724286  -0.004046
C  1.302141  10.553000  -0.013874
C  8.830644  12.029000  -0.076136
C  15.145562  9.823667  -0.058984
C  0.021251  9.823667  0.056502
C  8.830644  10.553000  -0.297303
C  15.145562  8.371221  0.075128
C  0.021251  8.371221  -0.116578
C  7.582124  9.823667  -0.375888
C  13.876357  7.631998  0.213733
C  -1.214289  7.631998  -0.182975
C  7.582124  8.371221  -0.318034
C  13.876357  6.197900  0.206036
C  -1.214289  6.197900  -0.175063
C  6.330357  7.631998  -0.237489
C  12.623562  5.453610  0.089340
C  -2.463372  5.453610  0.027796
C  6.330357  6.197900  -0.247579
C  12.623562  4.000000  0.031052
C  -2.463372  4.000000  0.183800
C  7.582124  12.724286  -0.009884
C  13.876357  10.553000  0.006215
C  -1.214289  10.553000  0.227121
C  6.330357  12.029000  -0.201536
C  12.623562  9.823667  0.048381
C  -2.463372  9.823667  0.180412
C  6.330357  10.553000  -0.157234
C  12.623562  8.371221  0.097045
C  -2.463372  8.371221  0.021176
C  5.067250  9.823667  0.054951
C  -3.721000  7.631998  0.045335
C  5.067250  8.371221  0.108547
C  -3.721000  6.197900  0.050993
C  5.067250  12.724286  -0.089850
C  3.815571  12.029000  -0.014365
C  3.815571  10.553000  -0.000971
C  2.546438  12.724286  0.088455
C  1.302141  12.029000  0.091907
C  6.330357  3.272000  -0.207110
C  15.145562  12.724286  0.061468
C  0.021251  12.724286  0.097538
C  13.876357  12.029000  -0.027677
C  -1.214289  12.029000  0.199156
C  12.623562  12.724286  -0.104620
C  6.330357  1.797813  -0.313203
C  8.830644  1.797813  -0.175097
C  11.361143  1.797813  -0.309784
C  10.098375  1.101000  -0.133096
C  7.582124  1.101000  -0.129965
C  5.067250  1.101000  -0.196500
C  12.623562  1.101000  -0.192217
