142
frame	573
H  17.693000  13.826000  0.000000
H  19.858000  12.564000  0.000000
H  21.106000  10.363000  0.000000
H  22.366000  5.656000  0.000000
H  22.367000  8.165000  0.000000
H  19.852000  1.261000  0.000000
H  17.690000  -0.000000  0.000000
H  21.104000  3.459000  0.000000
H  2.530000  -0.005000  0.000000
H  15.160000  -0.002000  0.000000
H  0.000000  -0.000000  0.000000
H  -2.163000  1.262000  0.000000
H  -3.415000  3.463000  0.000000
H  -4.677000  8.168000  0.000000
H  -4.678000  5.662000  0.000000
H  -2.159000  12.565000  0.000000
H  10.109000  13.837000  0.000000
H  7.585000  13.838000  0.000000
H  5.062000  13.833000  0.000000
H  2.535000  13.828000  0.000000
H  15.163000  13.830000  0.000000
H  0.007000  13.825000  0.000000
H  -3.412000  10.366000  0.000000
H  12.635000  13.835000  0.000000
H  10.108000  -0.010000  0.000000
H  7.583000  -0.012000  0.000000
H  5.058000  -0.011000  0.000000
H  12.631000  -0.009000  0.000000
C  16.391568  10.553000  0.004583
C  16.391568  12.029000  0.097493
C  17.670751  12.724286  0.088584
C  17.670751  8.371221  -0.050340
C  17.670751  9.823667  0.062071
C  18.905140  10.553000  0.193658
C  18.905140  12.029000  0.200212
C  17.670751  4.000000  0.062021
C  17.670751  5.453610  -0.054581
C  18.905140  6.197900  -0.042301
C  18.905140  7.631998  -0.051028
C  20.154752  8.371221  0.090117
C  20.154752  9.823667  0.220584
C  18.905140  3.272000  0.203703
C  20.154752  4.000000  0.225795
C  20.154752  5.453610  0.074380
C  21.411000  6.197900  0.128004
C  21.411000  7.631998  0.134624
C  17.670751  1.101000  0.098676
C  18.905140  1.797813  0.224207
C  5.067250  5.453610  0.132401
C  5.067250  4.000000  0.045463
C  3.815571  3.272000  -0.018476
C  3.815571  1.797813  -0.106510
C  11.361143  3.272000  -0.214480
C  2.546438  1.101000  -0.024306
C  3.815571  7.631998  0.247022
C  3.815571  6.197900  0.232400
C  11.361143  7.631998  -0.211854
C  2.546438  5.453610  0.082469
C  11.361143  6.197900  -0.238257
C  2.546438  4.000000  -0.059444
C  10.098375  5.453610  -0.344573
C  16.391568  3.272000  -0.014685
C  1.302141  3.272000  -0.043564
C  10.098375  4.000000  -0.434229
C  16.391568  1.797813  0.061452
C  1.302141  1.797813  0.062077
C  8.830644  3.272000  -0.365209
C  15.145562  1.101000  -0.014286
C  0.021251  1.101000  0.074748
C  11.361143  12.029000  -0.185641
C  2.546438  9.823667  -0.037652
C  11.361143  10.553000  -0.176062
C  2.546438  8.371221  0.104625
C  10.098375  9.823667  -0.384371
C  16.391568  7.631998  -0.011538
C  1.302141  7.631998  -0.022107
C  10.098375  8.371221  -0.302050
C  16.391568  6.197900  -0.012636
C  1.302141  6.197900  -0.014165
C  15.145562  5.453610  0.097814
C  0.021251  5.453610  -0.073802
C  8.830644  7.631998  -0.244646
C  8.830644  6.197900  -0.262930
C  15.145562  4.000000  -0.038063
C  0.021251  4.000000  0.032997
C  7.582124  5.453610  -0.349748
C  13.876357  3.272000  0.000515
C  -1.214289  3.272000  0.170241
C  7.582124  4.000000  -0.421006
C  13.876357  1.797813  -0.097597
C  -1.214289  1.797813  0.202051
C  10.098375  12.724286  -0.028968
C  1.302141  10.553000  -0.012347
C  8.830644  12.029000  -0.115888
C  15.145562  9.823667  -0.020447
C  0.021251  9.823667  0.046939
C  8.830644  10.553000  -0.308103
C  15.145562  8.371221  0.110080
C  0.021251  8.371221  -0.082866
C  7.582124  9.823667  -0.363494
C  13.876357  7.631998  0.248412
C  -1.214289  7.631998  -0.087535
C  7.582124  8.371221  -0.324128
C  13.876357  6.197900  0.241412
C  -1.214289  6.197900  -0.084232
C  6.330357  7.631998  -0.216241
C  12.623562  5.453610  0.134343
C  -2.463372  5.453610  0.030893
C  6.330357  6.197900  -0.227560
C  12.623562  4.000000  0.052940
C  -2.463372  4.000000  0.156566
C  7.582124  12.724286  -0.028014
C  13.876357  10.553000  0.020900
C  -1.214289  10.553000  0.185346
C  6.330357  12.029000  -0.171314
C  12.623562  9.823667  0.070812
C  -2.463372  9.823667  0.158346
C  6.330357  10.553000  -0.139434
C  12.623562  8.371221  0.145737
C  -2.463372  8.371221  0.017791
C  5.067250  9.823667  0.074053
C  -3.721000  7.631998  0.035281
C  5.067250  8.371221  0.158778
C  -3.721000  6.197900  0.038652
C  5.067250  12.724286  -0.118865
C  3.815571  12.029000  -0.030426
C  3.815571  10.553000  0.015927
C  2.546438  12.724286  0.055327
C  1.302141  12.029000  0.112934
C  6.330357  3.272000  -0.195889
C  15.145562  12.724286  0.029685
C  0.021251  12.724286  0.108108
C  13.876357  12.029000  -0.042652
C  -1.214289  12.029000  0.202602
C  12.623562  12.724286  -0.133834
C  6.330357  1.797813  -0.274847
C  8.830644  1.797813  -0.215210
C  11.361143  1.797813  -0.273784
C  10.098375  1.101000  -0.150053
C  7.582124  1.101000  -0.150196
C  5.067250  1.101000  -0.226563
C  12.623562  1.101000  -0.227219
