142
frame	575
H  17.693000  13.826000  0.000000
H  19.858000  12.564000  0.000000
H  21.106000  10.363000  0.000000
H  22.366000  5.656000  0.000000
H  22.367000  8.165000  0.000000
H  19.852000  1.261000  0.000000
H  17.690000  -0.000000  0.000000
H  21.104000  3.459000  0.000000
H  2.530000  -0.005000  0.000000
H  15.160000  -0.002000  0.000000
H  0.000000  -0.000000  0.000000
H  -2.163000  1.262000  0.000000
H  -3.415000  3.463000  0.000000
H  -4.677000  8.168000  0.000000
H  -4.678000  5.662000  0.000000
H  -2.159000  12.565000  0.000000
H  10.109000  13.837000  0.000000
H  7.585000  13.838000  0.000000
H  5.062000  13.833000  0.000000
H  2.535000  13.828000  0.000000
H  15.163000  13.830000  0.000000
H  0.007000  13.825000  0.000000
H  -3.412000  10.366000  0.000000
H  12.635000  13.835000  0.000000
H  10.108000  -0.010000  0.000000
H  7.583000  -0.012000  0.000000
H  5.058000  -0.011000  0.000000
H  12.631000  -0.009000  0.000000
C  16.391568  10.553000  0.008461
C  16.391568  12.029000  0.097629
C  17.670751  12.724286  0.094632
C  17.670751  8.371221  -0.033655
C  17.670751  9.823667  0.058776
C  18.905140  10.553000  0.175617
C  18.905140  12.029000  0.195377
C  17.670751  4.000000  0.057573
C  17.670751  5.453610  -0.037844
C  18.905140  6.197900  -0.011573
C  18.905140  7.631998  -0.017438
C  20.154752  8.371221  0.089095
C  20.154752  9.823667  0.206676
C  18.905140  3.272000  0.187593
C  20.154752  4.000000  0.213675
C  20.154752  5.453610  0.073163
C  21.411000  6.197900  0.122184
C  21.411000  7.631998  0.128874
C  17.670751  1.101000  0.102676
C  18.905140  1.797813  0.220140
C  5.067250  5.453610  0.140204
C  5.067250  4.000000  0.047307
C  3.815571  3.272000  -0.012771
C  3.815571  1.797813  -0.113492
C  11.361143  3.272000  -0.214792
C  2.546438  1.101000  -0.035265
C  3.815571  7.631998  0.255329
C  3.815571  6.197900  0.243661
C  11.361143  7.631998  -0.199838
C  2.546438  5.453610  0.092311
C  11.361143  6.197900  -0.222191
C  2.546438  4.000000  -0.039491
C  10.098375  5.453610  -0.348482
C  16.391568  3.272000  -0.010635
C  1.302141  3.272000  -0.038557
C  10.098375  4.000000  -0.419409
C  16.391568  1.797813  0.065541
C  1.302141  1.797813  0.067029
C  8.830644  3.272000  -0.374373
C  15.145562  1.101000  -0.025256
C  0.021251  1.101000  0.080726
C  11.361143  12.029000  -0.168534
C  2.546438  9.823667  -0.017722
C  11.361143  10.553000  -0.176225
C  2.546438  8.371221  0.116688
C  10.098375  9.823667  -0.370632
C  16.391568  7.631998  0.004847
C  1.302141  7.631998  -0.006369
C  10.098375  8.371221  -0.304935
C  16.391568  6.197900  0.003650
C  1.302141  6.197900  0.000577
C  15.145562  5.453610  0.106861
C  0.021251  5.453610  -0.058453
C  8.830644  7.631998  -0.281680
C  8.830644  6.197900  -0.299859
C  15.145562  4.000000  -0.017987
C  0.021251  4.000000  0.027413
C  7.582124  5.453610  -0.351907
C  13.876357  3.272000  0.002632
C  -1.214289  3.272000  0.153281
C  7.582124  4.000000  -0.405742
C  13.876357  1.797813  -0.099603
C  -1.214289  1.797813  0.197895
C  10.098375  12.724286  -0.041073
C  1.302141  10.553000  -0.008323
C  8.830644  12.029000  -0.128856
C  15.145562  9.823667  -0.001312
C  0.021251  9.823667  0.042372
C  8.830644  10.553000  -0.315984
C  15.145562  8.371221  0.119315
C  0.021251  8.371221  -0.068654
C  7.582124  9.823667  -0.351287
C  13.876357  7.631998  0.257135
C  -1.214289  7.631998  -0.054110
C  7.582124  8.371221  -0.325298
C  13.876357  6.197900  0.249927
C  -1.214289  6.197900  -0.051846
C  6.330357  7.631998  -0.201264
C  12.623562  5.453610  0.141533
C  -2.463372  5.453610  0.030823
C  6.330357  6.197900  -0.213600
C  12.623562  4.000000  0.054979
C  -2.463372  4.000000  0.144480
C  7.582124  12.724286  -0.037961
C  13.876357  10.553000  0.026006
C  -1.214289  10.553000  0.168600
C  6.330357  12.029000  -0.156193
C  12.623562  9.823667  0.073089
C  -2.463372  9.823667  0.147402
C  6.330357  10.553000  -0.137212
C  12.623562  8.371221  0.154902
C  -2.463372  8.371221  0.016009
C  5.067250  9.823667  0.077066
C  -3.721000  7.631998  0.032188
C  5.067250  8.371221  0.167690
C  -3.721000  6.197900  0.035339
C  5.067250  12.724286  -0.124820
C  3.815571  12.029000  -0.036501
C  3.815571  10.553000  0.020758
C  2.546438  12.724286  0.042435
C  1.302141  12.029000  0.115987
C  6.330357  3.272000  -0.197770
C  15.145562  12.724286  0.018758
C  0.021251  12.724286  0.114044
C  13.876357  12.029000  -0.047560
C  -1.214289  12.029000  0.198685
C  12.623562  12.724286  -0.140791
C  6.330357  1.797813  -0.254957
C  8.830644  1.797813  -0.228202
C  11.361143  1.797813  -0.256833
C  10.098375  1.101000  -0.159184
C  7.582124  1.101000  -0.161110
C  5.067250  1.101000  -0.232656
C  12.623562  1.101000  -0.235242
