142
frame	783
H  17.693000  13.826000  0.000000
H  19.858000  12.564000  0.000000
H  21.106000  10.363000  0.000000
H  22.366000  5.656000  0.000000
H  22.367000  8.165000  0.000000
H  19.852000  1.261000  0.000000
H  17.690000  -0.000000  0.000000
H  21.104000  3.459000  0.000000
H  2.530000  -0.005000  0.000000
H  15.160000  -0.002000  0.000000
H  0.000000  -0.000000  0.000000
H  -2.163000  1.262000  0.000000
H  -3.415000  3.463000  0.000000
H  -4.677000  8.168000  0.000000
H  -4.678000  5.662000  0.000000
H  -2.159000  12.565000  0.000000
H  10.109000  13.837000  0.000000
H  7.585000  13.838000  0.000000
H  5.062000  13.833000  0.000000
H  2.535000  13.828000  0.000000
H  15.163000  13.830000  0.000000
H  0.007000  13.825000  0.000000
H  -3.412000  10.366000  0.000000
H  12.635000  13.835000  0.000000
H  10.108000  -0.010000  0.000000
H  7.583000  -0.012000  0.000000
H  5.058000  -0.011000  0.000000
H  12.631000  -0.009000  0.000000
C  16.391568  10.553000  0.350049
C  16.391568  12.029000  0.189383
C  17.670751  12.724286  -0.033092
C  17.670751  8.371221  0.558391
C  17.670751  9.823667  0.413512
C  18.905140  10.553000  0.084866
C  18.905140  12.029000  -0.090716
C  17.670751  4.000000  0.401134
C  17.670751  5.453610  0.557081
C  18.905140  6.197900  0.387686
C  18.905140  7.631998  0.371187
C  20.154752  8.371221  0.291961
C  20.154752  9.823667  0.086249
C  18.905140  3.272000  0.091355
C  20.154752  4.000000  0.098585
C  20.154752  5.453610  0.294258
C  21.411000  6.197900  0.396768
C  21.411000  7.631998  0.399744
C  17.670751  1.101000  -0.027358
C  18.905140  1.797813  -0.080051
C  5.067250  5.453610  0.459571
C  5.067250  4.000000  0.407745
C  3.815571  3.272000  0.243202
C  3.815571  1.797813  0.146423
C  11.361143  3.272000  0.313424
C  2.546438  1.101000  0.158464
C  3.815571  7.631998  0.523328
C  3.815571  6.197900  0.511090
C  11.361143  7.631998  0.392347
C  2.546438  5.453610  0.476340
C  11.361143  6.197900  0.369038
C  2.546438  4.000000  0.360217
C  10.098375  5.453610  0.360519
C  16.391568  3.272000  0.331444
C  1.302141  3.272000  0.341266
C  10.098375  4.000000  0.306833
C  16.391568  1.797813  0.158667
C  1.302141  1.797813  0.174894
C  8.830644  3.272000  0.195318
C  15.145562  1.101000  0.167579
C  0.021251  1.101000  -0.031077
C  11.361143  12.029000  0.140659
C  2.546438  9.823667  0.405308
C  11.361143  10.553000  0.389910
C  2.546438  8.371221  0.504175
C  10.098375  9.823667  0.381255
C  16.391568  7.631998  0.698659
C  1.302141  7.631998  0.721954
C  10.098375  8.371221  0.405626
C  16.391568  6.197900  0.712344
C  1.302141  6.197900  0.717860
C  15.145562  5.453610  0.461747
C  0.021251  5.453610  0.550795
C  8.830644  7.631998  0.424131
C  8.830644  6.197900  0.423790
C  15.145562  4.000000  0.348254
C  0.021251  4.000000  0.397772
C  7.582124  5.453610  0.393125
C  13.876357  3.272000  0.227798
C  -1.214289  3.272000  0.052465
C  7.582124  4.000000  0.328115
C  13.876357  1.797813  0.127706
C  -1.214289  1.797813  -0.115426
C  10.098375  12.724286  0.078528
C  1.302141  10.553000  0.390786
C  8.830644  12.029000  0.133701
C  15.145562  9.823667  0.377626
C  0.021251  9.823667  0.429010
C  8.830644  10.553000  0.294968
C  15.145562  8.371221  0.469034
C  0.021251  8.371221  0.556336
C  7.582124  9.823667  0.409597
C  13.876357  7.631998  0.469372
C  -1.214289  7.631998  0.360673
C  7.582124  8.371221  0.418155
C  13.876357  6.197900  0.471261
C  -1.214289  6.197900  0.350220
C  6.330357  7.631998  0.425686
C  12.623562  5.453610  0.423921
C  -2.463372  5.453610  0.235092
C  6.330357  6.197900  0.416722
C  12.623562  4.000000  0.395519
C  -2.463372  4.000000  0.037896
C  7.582124  12.724286  0.100134
C  13.876357  10.553000  0.272918
C  -1.214289  10.553000  0.059013
C  6.330357  12.029000  0.176586
C  12.623562  9.823667  0.431741
C  -2.463372  9.823667  0.036822
C  6.330357  10.553000  0.434101
C  12.623562  8.371221  0.446786
C  -2.463372  8.371221  0.233119
C  5.067250  9.823667  0.460264
C  -3.721000  7.631998  0.299439
C  5.067250  8.371221  0.505783
C  -3.721000  6.197900  0.309524
C  5.067250  12.724286  0.108464
C  3.815571  12.029000  0.247501
C  3.815571  10.553000  0.311670
C  2.546438  12.724286  0.249268
C  1.302141  12.029000  0.221304
C  6.330357  3.272000  0.340557
C  15.145562  12.724286  0.214538
C  0.021251  12.724286  -0.000685
C  13.876357  12.029000  0.196703
C  -1.214289  12.029000  -0.122237
C  12.623562  12.724286  0.078171
C  6.330357  1.797813  0.041249
C  8.830644  1.797813  0.004214
C  11.361143  1.797813  0.032805
C  10.098375  1.101000  -0.058045
C  7.582124  1.101000  -0.044700
C  5.067250  1.101000  -0.010351
C  12.623562  1.101000  -0.037417
