142
frame	142
H  17.693000  13.826000  0.000000
H  19.858000  12.564000  0.000000
H  21.106000  10.363000  0.000000
H  22.366000  5.656000  0.000000
H  22.367000  8.165000  0.000000
H  19.852000  1.261000  0.000000
H  17.690000  -0.000000  0.000000
H  21.104000  3.459000  0.000000
H  2.530000  -0.005000  0.000000
H  15.160000  -0.002000  0.000000
H  0.000000  -0.000000  0.000000
H  -2.163000  1.262000  0.000000
H  -3.415000  3.463000  0.000000
H  -4.677000  8.168000  0.000000
H  -4.678000  5.662000  0.000000
H  -2.159000  12.565000  0.000000
H  10.109000  13.837000  0.000000
H  7.585000  13.838000  0.000000
H  5.062000  13.833000  0.000000
H  2.535000  13.828000  0.000000
H  15.163000  13.830000  0.000000
H  0.007000  13.825000  0.000000
H  -3.412000  10.366000  0.000000
H  12.635000  13.835000  0.000000
H  10.108000  -0.010000  0.000000
H  7.583000  -0.012000  0.000000
H  5.058000  -0.011000  0.000000
H  12.631000  -0.009000  0.000000
C  16.391568  10.553000  0.156229
C  16.391568  12.029000  0.229107
C  17.670751  12.724286  0.161730
C  17.670751  8.371221  0.254920
C  17.670751  9.823667  0.234645
C  18.905140  10.553000  0.103526
C  18.905140  12.029000  0.023607
C  17.670751  4.000000  0.228617
C  17.670751  5.453610  0.251363
C  18.905140  6.197900  0.249033
C  18.905140  7.631998  0.241473
C  20.154752  8.371221  0.113942
C  20.154752  9.823667  0.049764
C  18.905140  3.272000  0.111292
C  20.154752  4.000000  0.069610
C  20.154752  5.453610  0.124384
C  21.411000  6.197900  0.136928
C  21.411000  7.631998  0.134658
C  17.670751  1.101000  0.164626
C  18.905140  1.797813  0.059187
C  5.067250  5.453610  -0.371641
C  5.067250  4.000000  -0.287691
C  3.815571  3.272000  -0.190636
C  3.815571  1.797813  -0.158043
C  11.361143  3.272000  -0.504604
C  2.546438  1.101000  0.065599
C  3.815571  7.631998  -0.196465
C  3.815571  6.197900  -0.217227
C  11.361143  7.631998  -0.617198
C  2.546438  5.453610  -0.178906
C  11.361143  6.197900  -0.611377
C  2.546438  4.000000  -0.111574
C  10.098375  5.453610  -0.589906
C  16.391568  3.272000  0.146006
C  1.302141  3.272000  0.146544
C  10.098375  4.000000  -0.574224
C  16.391568  1.797813  0.196903
C  1.302141  1.797813  0.203198
C  8.830644  3.272000  -0.772107
C  15.145562  1.101000  0.056405
C  0.021251  1.101000  0.165892
C  11.361143  12.029000  -0.361914
C  2.546438  9.823667  -0.074720
C  11.361143  10.553000  -0.417793
C  2.546438  8.371221  -0.155688
C  10.098375  9.823667  -0.522016
C  16.391568  7.631998  0.018867
C  1.302141  7.631998  0.014147
C  10.098375  8.371221  -0.574026
C  16.391568  6.197900  0.002523
C  1.302141  6.197900  0.012011
C  15.145562  5.453610  -0.176779
C  0.021251  5.453610  0.243986
C  8.830644  7.631998  -0.504477
C  8.830644  6.197900  -0.496208
C  15.145562  4.000000  -0.117860
C  0.021251  4.000000  0.224356
C  7.582124  5.453610  -0.588820
C  13.876357  3.272000  -0.195753
C  -1.214289  3.272000  0.091238
C  7.582124  4.000000  -0.569657
C  13.876357  1.797813  -0.165151
C  -1.214289  1.797813  0.040719
C  10.098375  12.724286  -0.294544
C  1.302141  10.553000  0.180620
C  8.830644  12.029000  -0.436787
C  15.145562  9.823667  -0.101695
C  0.021251  9.823667  0.238211
C  8.830644  10.553000  -0.677501
C  15.145562  8.371221  -0.174194
C  0.021251  8.371221  0.247713
C  7.582124  9.823667  -0.506297
C  13.876357  7.631998  -0.233199
C  -1.214289  7.631998  0.222827
C  7.582124  8.371221  -0.555909
C  13.876357  6.197900  -0.224954
C  -1.214289  6.197900  0.219344
C  6.330357  7.631998  -0.592026
C  12.623562  5.453610  -0.397171
C  -2.463372  5.453610  0.057781
C  6.330357  6.197900  -0.598017
C  12.623562  4.000000  -0.301504
C  -2.463372  4.000000  0.011787
C  7.582124  12.724286  -0.278417
C  13.876357  10.553000  -0.160736
C  -1.214289  10.553000  0.094704
C  6.330357  12.029000  -0.331289
C  12.623562  9.823667  -0.262152
C  -2.463372  9.823667  0.003100
C  6.330357  10.553000  -0.410298
C  12.623562  8.371221  -0.372094
C  -2.463372  8.371221  0.054406
C  5.067250  9.823667  -0.242128
C  -3.721000  7.631998  0.019036
C  5.067250  8.371221  -0.355438
C  -3.721000  6.197900  0.024079
C  5.067250  12.724286  -0.208949
C  3.815571  12.029000  -0.061203
C  3.815571  10.553000  -0.137968
C  2.546438  12.724286  0.139375
C  1.302141  12.029000  0.240936
C  6.330357  3.272000  -0.482216
C  15.145562  12.724286  0.109516
C  0.021251  12.724286  0.190513
C  13.876357  12.029000  -0.096286
C  -1.214289  12.029000  0.049130
C  12.623562  12.724286  -0.240108
C  6.330357  1.797813  -0.443077
C  8.830644  1.797813  -0.547974
C  11.361143  1.797813  -0.452242
C  10.098375  1.101000  -0.412232
C  7.582124  1.101000  -0.416443
C  5.067250  1.101000  -0.334494
C  12.623562  1.101000  -0.332650
