142
frame	22
H  17.693000  13.826000  0.000000
H  19.858000  12.564000  0.000000
H  21.106000  10.363000  0.000000
H  22.366000  5.656000  0.000000
H  22.367000  8.165000  0.000000
H  19.852000  1.261000  0.000000
H  17.690000  -0.000000  0.000000
H  21.104000  3.459000  0.000000
H  2.530000  -0.005000  0.000000
H  15.160000  -0.002000  0.000000
H  0.000000  -0.000000  0.000000
H  -2.163000  1.262000  0.000000
H  -3.415000  3.463000  0.000000
H  -4.677000  8.168000  0.000000
H  -4.678000  5.662000  0.000000
H  -2.159000  12.565000  0.000000
H  10.109000  13.837000  0.000000
H  7.585000  13.838000  0.000000
H  5.062000  13.833000  0.000000
H  2.535000  13.828000  0.000000
H  15.163000  13.830000  0.000000
H  0.007000  13.825000  0.000000
H  -3.412000  10.366000  0.000000
H  12.635000  13.835000  0.000000
H  10.108000  -0.010000  0.000000
H  7.583000  -0.012000  0.000000
H  5.058000  -0.011000  0.000000
H  12.631000  -0.009000  0.000000
C  16.391568  10.553000  0.024568
C  16.391568  12.029000  0.012400
C  17.670751  12.724286  0.018170
C  17.670751  8.371221  0.063735
C  17.670751  9.823667  0.052003
C  18.905140  10.553000  0.074608
C  18.905140  12.029000  0.048356
C  17.670751  4.000000  0.051163
C  17.670751  5.453610  0.063290
C  18.905140  6.197900  0.106204
C  18.905140  7.631998  0.104377
C  20.154752  8.371221  0.144330
C  20.154752  9.823667  0.123941
C  18.905140  3.272000  0.083407
C  20.154752  4.000000  0.137928
C  20.154752  5.453610  0.152076
C  21.411000  6.197900  0.211069
C  21.411000  7.631998  0.206003
C  17.670751  1.101000  0.016125
C  18.905140  1.797813  0.061164
C  5.067250  5.453610  0.030992
C  5.067250  4.000000  -0.006687
C  3.815571  3.272000  -0.001874
C  3.815571  1.797813  -0.026013
C  11.361143  3.272000  -0.029020
C  2.546438  1.101000  -0.024935
C  3.815571  7.631998  0.022353
C  3.815571  6.197900  0.010165
C  11.361143  7.631998  0.203210
C  2.546438  5.453610  0.034006
C  11.361143  6.197900  0.211159
C  2.546438  4.000000  0.023597
C  10.098375  5.453610  -0.021865
C  16.391568  3.272000  0.011465
C  1.302141  3.272000  0.024490
C  10.098375  4.000000  0.127152
C  16.391568  1.797813  -0.006676
C  1.302141  1.797813  0.003590
C  8.830644  3.272000  0.056935
C  15.145562  1.101000  -0.040008
C  0.021251  1.101000  0.013888
C  11.361143  12.029000  0.013447
C  2.546438  9.823667  0.060310
C  11.361143  10.553000  0.028126
C  2.546438  8.371221  0.052469
C  10.098375  9.823667  0.155328
C  16.391568  7.631998  0.037629
C  1.302141  7.631998  0.061582
C  10.098375  8.371221  0.051296
C  16.391568  6.197900  0.035401
C  1.302141  6.197900  0.055411
C  15.145562  5.453610  0.000351
C  0.021251  5.453610  0.059333
C  8.830644  7.631998  -0.210775
C  8.830644  6.197900  -0.208639
C  15.145562  4.000000  -0.004325
C  0.021251  4.000000  0.047057
C  7.582124  5.453610  -0.003684
C  13.876357  3.272000  -0.031288
C  -1.214289  3.272000  0.057500
C  7.582124  4.000000  0.139814
C  13.876357  1.797813  -0.048046
C  -1.214289  1.797813  0.043733
C  10.098375  12.724286  0.041183
C  1.302141  10.553000  0.056581
C  8.830644  12.029000  0.041038
C  15.145562  9.823667  0.018421
C  0.021251  9.823667  0.058890
C  8.830644  10.553000  0.130921
C  15.145562  8.371221  0.013881
C  0.021251  8.371221  0.064762
C  7.582124  9.823667  0.203268
C  13.876357  7.631998  -0.019501
C  -1.214289  7.631998  0.072907
C  7.582124  8.371221  0.017268
C  13.876357  6.197900  -0.029690
C  -1.214289  6.197900  0.073711
C  6.330357  7.631998  0.266602
C  12.623562  5.453610  0.000228
C  -2.463372  5.453610  0.085725
C  6.330357  6.197900  0.248604
C  12.623562  4.000000  -0.036462
C  -2.463372  4.000000  0.081141
C  7.582124  12.724286  0.061639
C  13.876357  10.553000  0.011820
C  -1.214289  10.553000  0.058660
C  6.330357  12.029000  0.047595
C  12.623562  9.823667  0.003495
C  -2.463372  9.823667  0.071175
C  6.330357  10.553000  0.074642
C  12.623562  8.371221  0.007912
C  -2.463372  8.371221  0.081056
C  5.067250  9.823667  0.053082
C  -3.721000  7.631998  0.096016
C  5.067250  8.371221  0.062510
C  -3.721000  6.197900  0.100151
C  5.067250  12.724286  0.059073
C  3.815571  12.029000  0.061004
C  3.815571  10.553000  0.060113
C  2.546438  12.724286  0.050070
C  1.302141  12.029000  0.047762
C  6.330357  3.272000  -0.006426
C  15.145562  12.724286  0.001949
C  0.021251  12.724286  0.039962
C  13.876357  12.029000  0.010988
C  -1.214289  12.029000  0.046925
C  12.623562  12.724286  0.013875
C  6.330357  1.797813  -0.070592
C  8.830644  1.797813  -0.085241
C  11.361143  1.797813  -0.088844
C  10.098375  1.101000  -0.093783
C  7.582124  1.101000  -0.083266
C  5.067250  1.101000  -0.059880
C  12.623562  1.101000  -0.079204
