142
frame	88
H  17.693000  13.826000  0.000000
H  19.858000  12.564000  0.000000
H  21.106000  10.363000  0.000000
H  22.366000  5.656000  0.000000
H  22.367000  8.165000  0.000000
H  19.852000  1.261000  0.000000
H  17.690000  -0.000000  0.000000
H  21.104000  3.459000  0.000000
H  2.530000  -0.005000  0.000000
H  15.160000  -0.002000  0.000000
H  0.000000  -0.000000  0.000000
H  -2.163000  1.262000  0.000000
H  -3.415000  3.463000  0.000000
H  -4.677000  8.168000  0.000000
H  -4.678000  5.662000  0.000000
H  -2.159000  12.565000  0.000000
H  10.109000  13.837000  0.000000
H  7.585000  13.838000  0.000000
H  5.062000  13.833000  0.000000
H  2.535000  13.828000  0.000000
H  15.163000  13.830000  0.000000
H  0.007000  13.825000  0.000000
H  -3.412000  10.366000  0.000000
H  12.635000  13.835000  0.000000
H  10.108000  -0.010000  0.000000
H  7.583000  -0.012000  0.000000
H  5.058000  -0.011000  0.000000
H  12.631000  -0.009000  0.000000
C  16.391568  10.553000  -0.008111
C  16.391568  12.029000  -0.064118
C  17.670751  12.724286  0.013313
C  17.670751  8.371221  0.025071
C  17.670751  9.823667  -0.016736
C  18.905140  10.553000  0.072725
C  18.905140  12.029000  0.082768
C  17.670751  4.000000  -0.016730
C  17.670751  5.453610  0.028677
C  18.905140  6.197900  0.064278
C  18.905140  7.631998  0.060525
C  20.154752  8.371221  0.142616
C  20.154752  9.823667  0.146293
C  18.905140  3.272000  0.074204
C  20.154752  4.000000  0.158097
C  20.154752  5.453610  0.148148
C  21.411000  6.197900  0.216680
C  21.411000  7.631998  0.213500
C  17.670751  1.101000  0.002775
C  18.905140  1.797813  0.090063
C  5.067250  5.453610  -0.301410
C  5.067250  4.000000  -0.159654
C  3.815571  3.272000  0.144983
C  3.815571  1.797813  0.106815
C  11.361143  3.272000  -0.244464
C  2.546438  1.101000  -0.047174
C  3.815571  7.631998  0.003046
C  3.815571  6.197900  -0.012918
C  11.361143  7.631998  -0.541583
C  2.546438  5.453610  0.215638
C  11.361143  6.197900  -0.570836
C  2.546438  4.000000  0.202242
C  10.098375  5.453610  -0.518422
C  16.391568  3.272000  -0.011554
C  1.302141  3.272000  -0.004347
C  10.098375  4.000000  -0.478968
C  16.391568  1.797813  -0.086723
C  1.302141  1.797813  -0.082438
C  8.830644  3.272000  -0.430848
C  15.145562  1.101000  -0.059525
C  0.021251  1.101000  -0.000296
C  11.361143  12.029000  0.105878
C  2.546438  9.823667  0.236025
C  11.361143  10.553000  -0.178668
C  2.546438  8.371221  0.230828
C  10.098375  9.823667  -0.423915
C  16.391568  7.631998  0.139569
C  1.302141  7.631998  0.164296
C  10.098375  8.371221  -0.512122
C  16.391568  6.197900  0.130563
C  1.302141  6.197900  0.159067
C  15.145562  5.453610  0.179606
C  0.021251  5.453610  0.019335
C  8.830644  7.631998  -0.576211
C  8.830644  6.197900  -0.599626
C  15.145562  4.000000  0.168397
C  0.021251  4.000000  -0.027995
C  7.582124  5.453610  -0.520071
C  13.876357  3.272000  0.113223
C  -1.214289  3.272000  0.049196
C  7.582124  4.000000  -0.478738
C  13.876357  1.797813  0.081920
C  -1.214289  1.797813  0.073381
C  10.098375  12.724286  0.124089
C  1.302141  10.553000  0.031951
C  8.830644  12.029000  0.013201
C  15.145562  9.823667  0.189212
C  0.021251  9.823667  -0.010955
C  8.830644  10.553000  -0.360405
C  15.145562  8.371221  0.199115
C  0.021251  8.371221  0.027940
C  7.582124  9.823667  -0.412643
C  13.876357  7.631998  -0.031846
C  -1.214289  7.631998  0.031876
C  7.582124  8.371221  -0.483778
C  13.876357  6.197900  -0.029112
C  -1.214289  6.197900  0.029640
C  6.330357  7.631998  -0.537975
C  12.623562  5.453610  -0.319553
C  -2.463372  5.453610  0.084394
C  6.330357  6.197900  -0.544525
C  12.623562  4.000000  -0.175231
C  -2.463372  4.000000  0.102666
C  7.582124  12.724286  0.134659
C  13.876357  10.553000  0.164428
C  -1.214289  10.553000  0.053600
C  6.330357  12.029000  0.135259
C  12.623562  9.823667  -0.126586
C  -2.463372  9.823667  0.094751
C  6.330357  10.553000  -0.144704
C  12.623562  8.371221  -0.299238
C  -2.463372  8.371221  0.079805
C  5.067250  9.823667  -0.109338
C  -3.721000  7.631998  0.105354
C  5.067250  8.371221  -0.269976
C  -3.721000  6.197900  0.109589
C  5.067250  12.724286  0.151891
C  3.815571  12.029000  0.191695
C  3.815571  10.553000  0.192913
C  2.546438  12.724286  0.031994
C  1.302141  12.029000  -0.034293
C  6.330357  3.272000  -0.225814
C  15.145562  12.724286  -0.027266
C  0.021251  12.724286  0.025819
C  13.876357  12.029000  0.128937
C  -1.214289  12.029000  0.078582
C  12.623562  12.724286  0.114248
C  6.330357  1.797813  0.036229
C  8.830644  1.797813  -0.101830
C  11.361143  1.797813  0.014010
C  10.098375  1.101000  -0.010332
C  7.582124  1.101000  -0.001910
C  5.067250  1.101000  0.045327
C  12.623562  1.101000  0.030533
