142
frame	9
H  17.693000  13.826000  0.000000
H  19.858000  12.564000  0.000000
H  21.106000  10.363000  0.000000
H  22.366000  5.656000  0.000000
H  22.367000  8.165000  0.000000
H  19.852000  1.261000  0.000000
H  17.690000  -0.000000  0.000000
H  21.104000  3.459000  0.000000
H  2.530000  -0.005000  0.000000
H  15.160000  -0.002000  0.000000
H  0.000000  -0.000000  0.000000
H  -2.163000  1.262000  0.000000
H  -3.415000  3.463000  0.000000
H  -4.677000  8.168000  0.000000
H  -4.678000  5.662000  0.000000
H  -2.159000  12.565000  0.000000
H  10.109000  13.837000  0.000000
H  7.585000  13.838000  0.000000
H  5.062000  13.833000  0.000000
H  2.535000  13.828000  0.000000
H  15.163000  13.830000  0.000000
H  0.007000  13.825000  0.000000
H  -3.412000  10.366000  0.000000
H  12.635000  13.835000  0.000000
H  10.108000  -0.010000  0.000000
H  7.583000  -0.012000  0.000000
H  5.058000  -0.011000  0.000000
H  12.631000  -0.009000  0.000000
C  16.391568  10.553000  0.024534
C  16.391568  12.029000  0.012444
C  17.670751  12.724286  0.017126
C  17.670751  8.371221  0.062770
C  17.670751  9.823667  0.051993
C  18.905140  10.553000  0.074539
C  18.905140  12.029000  0.048345
C  17.670751  4.000000  0.051174
C  17.670751  5.453610  0.062348
C  18.905140  6.197900  0.106170
C  18.905140  7.631998  0.104388
C  20.154752  8.371221  0.145364
C  20.154752  9.823667  0.122931
C  18.905140  3.272000  0.084406
C  20.154752  4.000000  0.138927
C  20.154752  5.453610  0.153075
C  21.411000  6.197900  0.211104
C  21.411000  7.631998  0.205959
C  17.670751  1.101000  0.016091
C  18.905140  1.797813  0.061129
C  5.067250  5.453610  0.008401
C  5.067250  4.000000  0.010028
C  3.815571  3.272000  0.002076
C  3.815571  1.797813  -0.028035
C  11.361143  3.272000  -0.051732
C  2.546438  1.101000  -0.026967
C  3.815571  7.631998  0.046928
C  3.815571  6.197900  0.034761
C  11.361143  7.631998  0.085757
C  2.546438  5.453610  0.041783
C  11.361143  6.197900  0.091492
C  2.546438  4.000000  0.022574
C  10.098375  5.453610  0.246980
C  16.391568  3.272000  0.011465
C  1.302141  3.272000  0.024513
C  10.098375  4.000000  0.055072
C  16.391568  1.797813  -0.005710
C  1.302141  1.797813  0.002625
C  8.830644  3.272000  -0.023103
C  15.145562  1.101000  -0.040042
C  0.021251  1.101000  0.013888
C  11.361143  12.029000  0.027484
C  2.546438  9.823667  0.059277
C  11.361143  10.553000  0.017477
C  2.546438  8.371221  0.060214
C  10.098375  9.823667  0.098428
C  16.391568  7.631998  0.036732
C  1.302141  7.631998  0.059491
C  10.098375  8.371221  0.235148
C  16.391568  6.197900  0.034572
C  1.302141  6.197900  0.053310
C  15.145562  5.453610  0.007821
C  0.021251  5.453610  0.058344
C  8.830644  7.631998  0.580614
C  8.830644  6.197900  0.577344
C  15.145562  4.000000  -0.005290
C  0.021251  4.000000  0.047101
C  7.582124  5.453610  0.264873
C  13.876357  3.272000  -0.028010
C  -1.214289  3.272000  0.058544
C  7.582124  4.000000  0.068448
C  13.876357  1.797813  -0.050011
C  -1.214289  1.797813  0.042733
C  10.098375  12.724286  0.053259
C  1.302141  10.553000  0.054582
C  8.830644  12.029000  0.052940
C  15.145562  9.823667  0.016456
C  0.021251  9.823667  0.058924
C  8.830644  10.553000  0.063933
C  15.145562  8.371221  0.019256
C  0.021251  8.371221  0.063695
C  7.582124  9.823667  0.135635
C  13.876357  7.631998  0.001227
C  -1.214289  7.631998  0.072873
C  7.582124  8.371221  0.297967
C  13.876357  6.197900  -0.008931
C  -1.214289  6.197900  0.072678
C  6.330357  7.631998  0.139017
C  12.623562  5.453610  -0.027939
C  -2.463372  5.453610  0.085725
C  6.330357  6.197900  0.119897
C  12.623562  4.000000  -0.023641
C  -2.463372  4.000000  0.080131
C  7.582124  12.724286  0.073569
C  13.876357  10.553000  0.014981
C  -1.214289  10.553000  0.059659
C  6.330357  12.029000  0.063512
C  12.623562  9.823667  0.021996
C  -2.463372  9.823667  0.071175
C  6.330357  10.553000  0.055609
C  12.623562  8.371221  -0.007528
C  -2.463372  8.371221  0.080023
C  5.067250  9.823667  0.070646
C  -3.721000  7.631998  0.096016
C  5.067250  8.371221  0.038772
C  -3.721000  6.197900  0.100151
C  5.067250  12.724286  0.065856
C  3.815571  12.029000  0.059005
C  3.815571  10.553000  0.064076
C  2.546438  12.724286  0.048071
C  1.302141  12.029000  0.046729
C  6.330357  3.272000  -0.027437
C  15.145562  12.724286  0.001949
C  0.021251  12.724286  0.039996
C  13.876357  12.029000  0.009024
C  -1.214289  12.029000  0.046925
C  12.623562  12.724286  0.018015
C  6.330357  1.797813  -0.055500
C  8.830644  1.797813  -0.073961
C  11.361143  1.797813  -0.074516
C  10.098375  1.101000  -0.080585
C  7.582124  1.101000  -0.070238
C  5.067250  1.101000  -0.054050
C  12.623562  1.101000  -0.073875
