142
frame	719
H  17.693000  13.826000  0.000000
H  19.858000  12.564000  0.000000
H  21.106000  10.363000  0.000000
H  22.366000  5.656000  0.000000
H  22.367000  8.165000  0.000000
H  19.852000  1.261000  0.000000
H  17.690000  -0.000000  0.000000
H  21.104000  3.459000  0.000000
H  2.530000  -0.005000  0.000000
H  15.160000  -0.002000  0.000000
H  0.000000  -0.000000  0.000000
H  -2.163000  1.262000  0.000000
H  -3.415000  3.463000  0.000000
H  -4.677000  8.168000  0.000000
H  -4.678000  5.662000  0.000000
H  -2.159000  12.565000  0.000000
H  10.109000  13.837000  0.000000
H  7.585000  13.838000  0.000000
H  5.062000  13.833000  0.000000
H  2.535000  13.828000  0.000000
H  15.163000  13.830000  0.000000
H  0.007000  13.825000  0.000000
H  -3.412000  10.366000  0.000000
H  12.635000  13.835000  0.000000
H  10.108000  -0.010000  0.000000
H  7.583000  -0.012000  0.000000
H  5.058000  -0.011000  0.000000
H  12.631000  -0.009000  0.000000
C  16.391568  10.553000  0.474734
C  16.391568  12.029000  0.353792
C  17.670751  12.724286  0.263536
C  17.670751  8.371221  0.608305
C  17.670751  9.823667  0.678189
C  18.905140  10.553000  0.584420
C  18.905140  12.029000  0.311712
C  17.670751  4.000000  0.684424
C  17.670751  5.453610  0.624864
C  18.905140  6.197900  0.603305
C  18.905140  7.631998  0.606472
C  20.154752  8.371221  0.547803
C  20.154752  9.823667  0.493669
C  18.905140  3.272000  0.589472
C  20.154752  4.000000  0.507298
C  20.154752  5.453610  0.559112
C  21.411000  6.197900  0.421396
C  21.411000  7.631998  0.424995
C  17.670751  1.101000  0.265962
C  18.905140  1.797813  0.316769
C  5.067250  5.453610  0.206899
C  5.067250  4.000000  0.193646
C  3.815571  3.272000  0.167042
C  3.815571  1.797813  0.122135
C  11.361143  3.272000  0.108769
C  2.546438  1.101000  0.182167
C  3.815571  7.631998  0.245092
C  3.815571  6.197900  0.214951
C  11.361143  7.631998  0.165390
C  2.546438  5.453610  0.270746
C  11.361143  6.197900  0.138332
C  2.546438  4.000000  0.209894
C  10.098375  5.453610  0.133471
C  16.391568  3.272000  0.450864
C  1.302141  3.272000  0.465214
C  10.098375  4.000000  0.079770
C  16.391568  1.797813  0.349587
C  1.302141  1.797813  0.341723
C  8.830644  3.272000  0.012834
C  15.145562  1.101000  0.185939
C  0.021251  1.101000  0.269867
C  11.361143  12.029000  0.098513
C  2.546438  9.823667  0.263171
C  11.361143  10.553000  0.158175
C  2.546438  8.371221  0.290366
C  10.098375  9.823667  0.145185
C  16.391568  7.631998  0.385159
C  1.302141  7.631998  0.379717
C  10.098375  8.371221  0.174370
C  16.391568  6.197900  0.370714
C  1.302141  6.197900  0.376379
C  15.145562  5.453610  0.248973
C  0.021251  5.453610  0.603145
C  8.830644  7.631998  0.178782
C  8.830644  6.197900  0.154503
C  15.145562  4.000000  0.198526
C  0.021251  4.000000  0.679082
C  7.582124  5.453610  0.127712
C  13.876357  3.272000  0.135710
C  -1.214289  3.272000  0.560059
C  7.582124  4.000000  0.094867
C  13.876357  1.797813  0.096917
C  -1.214289  1.797813  0.295752
C  10.098375  12.724286  0.142631
C  1.302141  10.553000  0.500146
C  8.830644  12.029000  0.227224
C  15.145562  9.823667  0.218809
C  0.021251  9.823667  0.698720
C  8.830644  10.553000  0.104298
C  15.145562  8.371221  0.260443
C  0.021251  8.371221  0.606280
C  7.582124  9.823667  0.177415
C  13.876357  7.631998  0.188658
C  -1.214289  7.631998  0.534880
C  7.582124  8.371221  0.167762
C  13.876357  6.197900  0.166467
C  -1.214289  6.197900  0.536907
C  6.330357  7.631998  0.198898
C  12.623562  5.453610  0.163054
C  -2.463372  5.453610  0.477532
C  6.330357  6.197900  0.156550
C  12.623562  4.000000  0.167645
C  -2.463372  4.000000  0.443825
C  7.582124  12.724286  0.169694
C  13.876357  10.553000  0.168779
C  -1.214289  10.553000  0.570966
C  6.330357  12.029000  0.133031
C  12.623562  9.823667  0.209742
C  -2.463372  9.823667  0.434873
C  6.330357  10.553000  0.210783
C  12.623562  8.371221  0.207472
C  -2.463372  8.371221  0.472329
C  5.067250  9.823667  0.264675
C  -3.721000  7.631998  0.298854
C  5.067250  8.371221  0.249435
C  -3.721000  6.197900  0.305322
C  5.067250  12.724286  0.050308
C  3.815571  12.029000  0.210119
C  3.815571  10.553000  0.223338
C  2.546438  12.724286  0.266158
C  1.302141  12.029000  0.403429
C  6.330357  3.272000  0.103702
C  15.145562  12.724286  0.205880
C  0.021251  12.724286  0.296498
C  13.876357  12.029000  0.144617
C  -1.214289  12.029000  0.292795
C  12.623562  12.724286  -0.010655
C  6.330357  1.797813  0.008089
C  8.830644  1.797813  0.109713
C  11.361143  1.797813  -0.011251
C  10.098375  1.101000  0.014186
C  7.582124  1.101000  0.018350
C  5.067250  1.101000  -0.072911
C  12.623562  1.101000  -0.112678
