142
frame	107
H  17.693000  13.826000  0.000000
H  19.858000  12.564000  0.000000
H  21.106000  10.363000  0.000000
H  22.366000  5.656000  0.000000
H  22.367000  8.165000  0.000000
H  19.852000  1.261000  0.000000
H  17.690000  -0.000000  0.000000
H  21.104000  3.459000  0.000000
H  2.530000  -0.005000  0.000000
H  15.160000  -0.002000  0.000000
H  0.000000  -0.000000  0.000000
H  -2.163000  1.262000  0.000000
H  -3.415000  3.463000  0.000000
H  -4.677000  8.168000  0.000000
H  -4.678000  5.662000  0.000000
H  -2.159000  12.565000  0.000000
H  10.109000  13.837000  0.000000
H  7.585000  13.838000  0.000000
H  5.062000  13.833000  0.000000
H  2.535000  13.828000  0.000000
H  15.163000  13.830000  0.000000
H  0.007000  13.825000  0.000000
H  -3.412000  10.366000  0.000000
H  12.635000  13.835000  0.000000
H  10.108000  -0.010000  0.000000
H  7.583000  -0.012000  0.000000
H  5.058000  -0.011000  0.000000
H  12.631000  -0.009000  0.000000
C  16.391568  10.553000  0.156946
C  16.391568  12.029000  -0.003025
C  17.670751  12.724286  -0.082702
C  17.670751  8.371221  0.125506
C  17.670751  9.823667  0.030526
C  18.905140  10.553000  -0.006660
C  18.905140  12.029000  0.006444
C  17.670751  4.000000  0.036592
C  17.670751  5.453610  0.119625
C  18.905140  6.197900  0.062329
C  18.905140  7.631998  0.060531
C  20.154752  8.371221  0.104443
C  20.154752  9.823667  0.099763
C  18.905140  3.272000  0.003464
C  20.154752  4.000000  0.108952
C  20.154752  5.453610  0.113441
C  21.411000  6.197900  0.206093
C  21.411000  7.631998  0.201917
C  17.670751  1.101000  -0.085768
C  18.905140  1.797813  0.006601
C  5.067250  5.453610  -0.404449
C  5.067250  4.000000  -0.308214
C  3.815571  3.272000  0.019315
C  3.815571  1.797813  0.123742
C  11.361143  3.272000  -0.360187
C  2.546438  1.101000  0.097354
C  3.815571  7.631998  -0.249117
C  3.815571  6.197900  -0.258242
C  11.361143  7.631998  -0.420924
C  2.546438  5.453610  0.115575
C  11.361143  6.197900  -0.419679
C  2.546438  4.000000  0.201757
C  10.098375  5.453610  -0.638278
C  16.391568  3.272000  0.139729
C  1.302141  3.272000  0.159191
C  10.098375  4.000000  -0.422502
C  16.391568  1.797813  -0.006923
C  1.302141  1.797813  -0.000225
C  8.830644  3.272000  -0.373231
C  15.145562  1.101000  0.082653
C  0.021251  1.101000  -0.094151
C  11.361143  12.029000  -0.119598
C  2.546438  9.823667  0.230213
C  11.361143  10.553000  -0.308269
C  2.546438  8.371221  0.135117
C  10.098375  9.823667  -0.376480
C  16.391568  7.631998  0.238113
C  1.302141  7.631998  0.260896
C  10.098375  8.371221  -0.586907
C  16.391568  6.197900  0.233823
C  1.302141  6.197900  0.253718
C  15.145562  5.453610  0.096555
C  0.021251  5.453610  0.124678
C  8.830644  7.631998  -0.704807
C  8.830644  6.197900  -0.714162
C  15.145562  4.000000  0.174490
C  0.021251  4.000000  0.032405
C  7.582124  5.453610  -0.613787
C  13.876357  3.272000  0.000840
C  -1.214289  3.272000  -0.030241
C  7.582124  4.000000  -0.416961
C  13.876357  1.797813  0.105178
C  -1.214289  1.797813  -0.013154
C  10.098375  12.724286  -0.126719
C  1.302141  10.553000  0.189833
C  8.830644  12.029000  -0.253594
C  15.145562  9.823667  0.214412
C  0.021251  9.823667  0.050035
C  8.830644  10.553000  -0.305632
C  15.145562  8.371221  0.102208
C  0.021251  8.371221  0.130969
C  7.582124  9.823667  -0.371157
C  13.876357  7.631998  -0.267310
C  -1.214289  7.631998  0.030013
C  7.582124  8.371221  -0.583573
C  13.876357  6.197900  -0.281465
C  -1.214289  6.197900  0.029815
C  6.330357  7.631998  -0.387602
C  12.623562  5.453610  -0.419302
C  -2.463372  5.453610  0.043777
C  6.330357  6.197900  -0.411587
C  12.623562  4.000000  -0.322258
C  -2.463372  4.000000  0.049491
C  7.582124  12.724286  -0.122530
C  13.876357  10.553000  0.039796
C  -1.214289  10.553000  -0.023292
C  6.330357  12.029000  -0.089818
C  12.623562  9.823667  -0.295990
C  -2.463372  9.823667  0.043369
C  6.330357  10.553000  -0.286510
C  12.623562  8.371221  -0.393216
C  -2.463372  8.371221  0.041098
C  5.067250  9.823667  -0.243844
C  -3.721000  7.631998  0.093167
C  5.067250  8.371221  -0.382434
C  -3.721000  6.197900  0.096277
C  5.067250  12.724286  0.167186
C  3.815571  12.029000  0.192490
C  3.815571  10.553000  0.077354
C  2.546438  12.724286  0.171035
C  1.302141  12.029000  0.050625
C  6.330357  3.272000  -0.360275
C  15.145562  12.724286  0.114511
C  0.021251  12.724286  -0.063113
C  13.876357  12.029000  0.171267
C  -1.214289  12.029000  -0.008068
C  12.623562  12.724286  0.133372
C  6.330357  1.797813  -0.208841
C  8.830644  1.797813  -0.376332
C  11.361143  1.797813  -0.224653
C  10.098375  1.101000  -0.279830
C  7.582124  1.101000  -0.265648
C  5.067250  1.101000  0.064472
C  12.623562  1.101000  0.037630
