142
frame	343
H  17.693000  13.826000  0.000000
H  19.858000  12.564000  0.000000
H  21.106000  10.363000  0.000000
H  22.366000  5.656000  0.000000
H  22.367000  8.165000  0.000000
H  19.852000  1.261000  0.000000
H  17.690000  -0.000000  0.000000
H  21.104000  3.459000  0.000000
H  2.530000  -0.005000  0.000000
H  15.160000  -0.002000  0.000000
H  0.000000  -0.000000  0.000000
H  -2.163000  1.262000  0.000000
H  -3.415000  3.463000  0.000000
H  -4.677000  8.168000  0.000000
H  -4.678000  5.662000  0.000000
H  -2.159000  12.565000  0.000000
H  10.109000  13.837000  0.000000
H  7.585000  13.838000  0.000000
H  5.062000  13.833000  0.000000
H  2.535000  13.828000  0.000000
H  15.163000  13.830000  0.000000
H  0.007000  13.825000  0.000000
H  -3.412000  10.366000  0.000000
H  12.635000  13.835000  0.000000
H  10.108000  -0.010000  0.000000
H  7.583000  -0.012000  0.000000
H  5.058000  -0.011000  0.000000
H  12.631000  -0.009000  0.000000
C  16.391568  10.553000  -0.215656
C  16.391568  12.029000  -0.022974
C  17.670751  12.724286  -0.036926
C  17.670751  8.371221  -0.553767
C  17.670751  9.823667  -0.278035
C  18.905140  10.553000  -0.136294
C  18.905140  12.029000  -0.028432
C  17.670751  4.000000  -0.290797
C  17.670751  5.453610  -0.550651
C  18.905140  6.197900  -0.590000
C  18.905140  7.631998  -0.593950
C  20.154752  8.371221  -0.323991
C  20.154752  9.823667  -0.158818
C  18.905140  3.272000  -0.122689
C  20.154752  4.000000  -0.160282
C  20.154752  5.453610  -0.313406
C  21.411000  6.197900  0.004209
C  21.411000  7.631998  0.012796
C  17.670751  1.101000  -0.018092
C  18.905140  1.797813  -0.006631
C  5.067250  5.453610  -0.513011
C  5.067250  4.000000  -0.367145
C  3.815571  3.272000  -0.426808
C  3.815571  1.797813  -0.240688
C  11.361143  3.272000  -0.453484
C  2.546438  1.101000  -0.048103
C  3.815571  7.631998  -0.572092
C  3.815571  6.197900  -0.586041
C  11.361143  7.631998  -0.480803
C  2.546438  5.453610  -0.584996
C  11.361143  6.197900  -0.497242
C  2.546438  4.000000  -0.474738
C  10.098375  5.453610  -0.485274
C  16.391568  3.272000  -0.233518
C  1.302141  3.272000  -0.283887
C  10.098375  4.000000  -0.533529
C  16.391568  1.797813  -0.041194
C  1.302141  1.797813  -0.081088
C  8.830644  3.272000  -0.623488
C  15.145562  1.101000  -0.055260
C  0.021251  1.101000  -0.068985
C  11.361143  12.029000  -0.279915
C  2.546438  9.823667  -0.425220
C  11.361143  10.553000  -0.380209
C  2.546438  8.371221  -0.566416
C  10.098375  9.823667  -0.477635
C  16.391568  7.631998  -0.603819
C  1.302141  7.631998  -0.652761
C  10.098375  8.371221  -0.442643
C  16.391568  6.197900  -0.602717
C  1.302141  6.197900  -0.663728
C  15.145562  5.453610  -0.550951
C  0.021251  5.453610  -0.612827
C  8.830644  7.631998  -0.264030
C  8.830644  6.197900  -0.286979
C  15.145562  4.000000  -0.439431
C  0.021251  4.000000  -0.344529
C  7.582124  5.453610  -0.504151
C  13.876357  3.272000  -0.406371
C  -1.214289  3.272000  -0.185756
C  7.582124  4.000000  -0.543017
C  13.876357  1.797813  -0.235473
C  -1.214289  1.797813  -0.048456
C  10.098375  12.724286  -0.157855
C  1.302141  10.553000  -0.238984
C  8.830644  12.029000  -0.280467
C  15.145562  9.823667  -0.406866
C  0.021251  9.823667  -0.327369
C  8.830644  10.553000  -0.536227
C  15.145562  8.371221  -0.514673
C  0.021251  8.371221  -0.606854
C  7.582124  9.823667  -0.469165
C  13.876357  7.631998  -0.544092
C  -1.214289  7.631998  -0.690617
C  7.582124  8.371221  -0.442557
C  13.876357  6.197900  -0.565944
C  -1.214289  6.197900  -0.697545
C  6.330357  7.631998  -0.477987
C  12.623562  5.453610  -0.504237
C  -2.463372  5.453610  -0.418498
C  6.330357  6.197900  -0.497225
C  12.623562  4.000000  -0.339728
C  -2.463372  4.000000  -0.235091
C  7.582124  12.724286  -0.150925
C  13.876357  10.553000  -0.355781
C  -1.214289  10.553000  -0.190315
C  6.330357  12.029000  -0.274209
C  12.623562  9.823667  -0.304346
C  -2.463372  9.823667  -0.249742
C  6.330357  10.553000  -0.376960
C  12.623562  8.371221  -0.465157
C  -2.463372  8.371221  -0.414002
C  5.067250  9.823667  -0.307143
C  -3.721000  7.631998  -0.120654
C  5.067250  8.371221  -0.472531
C  -3.721000  6.197900  -0.110275
C  5.067250  12.724286  -0.148927
C  3.815571  12.029000  -0.145861
C  3.815571  10.553000  -0.363194
C  2.546438  12.724286  0.022710
C  1.302141  12.029000  -0.030079
C  6.330357  3.272000  -0.467369
C  15.145562  12.724286  0.000233
C  0.021251  12.724286  -0.038692
C  13.876357  12.029000  -0.181474
C  -1.214289  12.029000  -0.048515
C  12.623562  12.724286  -0.182858
C  6.330357  1.797813  -0.390527
C  8.830644  1.797813  -0.397279
C  11.361143  1.797813  -0.384968
C  10.098375  1.101000  -0.296526
C  7.582124  1.101000  -0.299638
C  5.067250  1.101000  -0.278432
C  12.623562  1.101000  -0.290184
