142
frame	223
H  17.693000  13.826000  0.000000
H  19.858000  12.564000  0.000000
H  21.106000  10.363000  0.000000
H  22.366000  5.656000  0.000000
H  22.367000  8.165000  0.000000
H  19.852000  1.261000  0.000000
H  17.690000  -0.000000  0.000000
H  21.104000  3.459000  0.000000
H  2.530000  -0.005000  0.000000
H  15.160000  -0.002000  0.000000
H  0.000000  -0.000000  0.000000
H  -2.163000  1.262000  0.000000
H  -3.415000  3.463000  0.000000
H  -4.677000  8.168000  0.000000
H  -4.678000  5.662000  0.000000
H  -2.159000  12.565000  0.000000
H  10.109000  13.837000  0.000000
H  7.585000  13.838000  0.000000
H  5.062000  13.833000  0.000000
H  2.535000  13.828000  0.000000
H  15.163000  13.830000  0.000000
H  0.007000  13.825000  0.000000
H  -3.412000  10.366000  0.000000
H  12.635000  13.835000  0.000000
H  10.108000  -0.010000  0.000000
H  7.583000  -0.012000  0.000000
H  5.058000  -0.011000  0.000000
H  12.631000  -0.009000  0.000000
C  16.391568  10.553000  -0.168987
C  16.391568  12.029000  -0.085293
C  17.670751  12.724286  -0.084380
C  17.670751  8.371221  0.176131
C  17.670751  9.823667  -0.036483
C  18.905140  10.553000  -0.076510
C  18.905140  12.029000  -0.101974
C  17.670751  4.000000  -0.050793
C  17.670751  5.453610  0.165750
C  18.905140  6.197900  0.447427
C  18.905140  7.631998  0.464249
C  20.154752  8.371221  0.286918
C  20.154752  9.823667  0.007950
C  18.905140  3.272000  -0.063690
C  20.154752  4.000000  0.033162
C  20.154752  5.453610  0.288185
C  21.411000  6.197900  0.298680
C  21.411000  7.631998  0.276528
C  17.670751  1.101000  -0.075576
C  18.905140  1.797813  -0.083114
C  5.067250  5.453610  -0.629391
C  5.067250  4.000000  -0.501882
C  3.815571  3.272000  -0.448469
C  3.815571  1.797813  -0.310676
C  11.361143  3.272000  -0.510825
C  2.546438  1.101000  -0.110558
C  3.815571  7.631998  -0.527169
C  3.815571  6.197900  -0.545586
C  11.361143  7.631998  -0.795678
C  2.546438  5.453610  -0.356907
C  11.361143  6.197900  -0.793471
C  2.546438  4.000000  -0.356046
C  10.098375  5.453610  -0.742482
C  16.391568  3.272000  -0.173733
C  1.302141  3.272000  -0.199051
C  10.098375  4.000000  -0.533790
C  16.391568  1.797813  -0.107032
C  1.302141  1.797813  -0.113610
C  8.830644  3.272000  -0.509990
C  15.145562  1.101000  -0.112635
C  0.021251  1.101000  -0.085673
C  11.361143  12.029000  -0.255856
C  2.546438  9.823667  -0.308303
C  11.361143  10.553000  -0.423224
C  2.546438  8.371221  -0.336109
C  10.098375  9.823667  -0.471306
C  16.391568  7.631998  -0.044044
C  1.302141  7.631998  -0.059960
C  10.098375  8.371221  -0.715490
C  16.391568  6.197900  -0.053214
C  1.302141  6.197900  -0.072149
C  15.145562  5.453610  -0.345596
C  0.021251  5.453610  0.136821
C  8.830644  7.631998  -0.776701
C  8.830644  6.197900  -0.783039
C  15.145562  4.000000  -0.349768
C  0.021251  4.000000  -0.080726
C  7.582124  5.453610  -0.747297
C  13.876357  3.272000  -0.454885
C  -1.214289  3.272000  -0.115515
C  7.582124  4.000000  -0.536083
C  13.876357  1.797813  -0.322620
C  -1.214289  1.797813  -0.128041
C  10.098375  12.724286  -0.227593
C  1.302141  10.553000  -0.166548
C  8.830644  12.029000  -0.173166
C  15.145562  9.823667  -0.331057
C  0.021251  9.823667  -0.070205
C  8.830644  10.553000  -0.408165
C  15.145562  8.371221  -0.334334
C  0.021251  8.371221  0.145160
C  7.582124  9.823667  -0.468594
C  13.876357  7.631998  -0.519310
C  -1.214289  7.631998  0.416189
C  7.582124  8.371221  -0.708241
C  13.876357  6.197900  -0.517380
C  -1.214289  6.197900  0.424379
C  6.330357  7.631998  -0.795583
C  12.623562  5.453610  -0.617249
C  -2.463372  5.453610  0.215348
C  6.330357  6.197900  -0.804406
C  12.623562  4.000000  -0.496941
C  -2.463372  4.000000  -0.052837
C  7.582124  12.724286  -0.213432
C  13.876357  10.553000  -0.408981
C  -1.214289  10.553000  -0.095016
C  6.330357  12.029000  -0.233759
C  12.623562  9.823667  -0.454492
C  -2.463372  9.823667  -0.050611
C  6.330357  10.553000  -0.417494
C  12.623562  8.371221  -0.594299
C  -2.463372  8.371221  0.200265
C  5.067250  9.823667  -0.438470
C  -3.721000  7.631998  0.173481
C  5.067250  8.371221  -0.593336
C  -3.721000  6.197900  0.174851
C  5.067250  12.724286  -0.215702
C  3.815571  12.029000  -0.227100
C  3.815571  10.553000  -0.397613
C  2.546438  12.724286  -0.029772
C  1.302141  12.029000  -0.068296
C  6.330357  3.272000  -0.507196
C  15.145562  12.724286  -0.068412
C  0.021251  12.724286  -0.062608
C  13.876357  12.029000  -0.271825
C  -1.214289  12.029000  -0.115983
C  12.623562  12.724286  -0.255829
C  6.330357  1.797813  -0.353299
C  8.830644  1.797813  -0.294627
C  11.361143  1.797813  -0.351425
C  10.098375  1.101000  -0.356769
C  7.582124  1.101000  -0.350752
C  5.067250  1.101000  -0.330606
C  12.623562  1.101000  -0.335800
