142
frame	316
H  17.693000  13.826000  0.000000
H  19.858000  12.564000  0.000000
H  21.106000  10.363000  0.000000
H  22.366000  5.656000  0.000000
H  22.367000  8.165000  0.000000
H  19.852000  1.261000  0.000000
H  17.690000  -0.000000  0.000000
H  21.104000  3.459000  0.000000
H  2.530000  -0.005000  0.000000
H  15.160000  -0.002000  0.000000
H  0.000000  -0.000000  0.000000
H  -2.163000  1.262000  0.000000
H  -3.415000  3.463000  0.000000
H  -4.677000  8.168000  0.000000
H  -4.678000  5.662000  0.000000
H  -2.159000  12.565000  0.000000
H  10.109000  13.837000  0.000000
H  7.585000  13.838000  0.000000
H  5.062000  13.833000  0.000000
H  2.535000  13.828000  0.000000
H  15.163000  13.830000  0.000000
H  0.007000  13.825000  0.000000
H  -3.412000  10.366000  0.000000
H  12.635000  13.835000  0.000000
H  10.108000  -0.010000  0.000000
H  7.583000  -0.012000  0.000000
H  5.058000  -0.011000  0.000000
H  12.631000  -0.009000  0.000000
C  16.391568  10.553000  -0.240940
C  16.391568  12.029000  0.000986
C  17.670751  12.724286  0.236194
C  17.670751  8.371221  -0.487729
C  17.670751  9.823667  -0.387085
C  18.905140  10.553000  -0.105640
C  18.905140  12.029000  0.182721
C  17.670751  4.000000  -0.387110
C  17.670751  5.453610  -0.494794
C  18.905140  6.197900  -0.332946
C  18.905140  7.631998  -0.334769
C  20.154752  8.371221  -0.176107
C  20.154752  9.823667  -0.049965
C  18.905140  3.272000  -0.085787
C  20.154752  4.000000  -0.022930
C  20.154752  5.453610  -0.175722
C  21.411000  6.197900  -0.062997
C  21.411000  7.631998  -0.079243
C  17.670751  1.101000  0.224174
C  18.905140  1.797813  0.192598
C  5.067250  5.453610  -0.417251
C  5.067250  4.000000  -0.445408
C  3.815571  3.272000  -0.295504
C  3.815571  1.797813  -0.307805
C  11.361143  3.272000  -0.456699
C  2.546438  1.101000  -0.161576
C  3.815571  7.631998  -0.581063
C  3.815571  6.197900  -0.597391
C  11.361143  7.631998  -0.457204
C  2.546438  5.453610  -0.610932
C  11.361143  6.197900  -0.476501
C  2.546438  4.000000  -0.370225
C  10.098375  5.453610  -0.666532
C  16.391568  3.272000  -0.260191
C  1.302141  3.272000  -0.287157
C  10.098375  4.000000  -0.514755
C  16.391568  1.797813  -0.023367
C  1.302141  1.797813  -0.033818
C  8.830644  3.272000  -0.418332
C  15.145562  1.101000  -0.151061
C  0.021251  1.101000  0.212836
C  11.361143  12.029000  -0.261131
C  2.546438  9.823667  -0.328014
C  11.361143  10.553000  -0.383363
C  2.546438  8.371221  -0.596622
C  10.098375  9.823667  -0.440277
C  16.391568  7.631998  -0.616501
C  1.302141  7.631998  -0.669882
C  10.098375  8.371221  -0.621435
C  16.391568  6.197900  -0.630893
C  1.302141  6.197900  -0.672261
C  15.145562  5.453610  -0.576043
C  0.021251  5.453610  -0.564604
C  8.830644  7.631998  -0.961838
C  8.830644  6.197900  -0.985264
C  15.145562  4.000000  -0.343273
C  0.021251  4.000000  -0.447153
C  7.582124  5.453610  -0.650681
C  13.876357  3.272000  -0.271819
C  -1.214289  3.272000  -0.153538
C  7.582124  4.000000  -0.519807
C  13.876357  1.797813  -0.299281
C  -1.214289  1.797813  0.147288
C  10.098375  12.724286  -0.136680
C  1.302141  10.553000  -0.255732
C  8.830644  12.029000  -0.127330
C  15.145562  9.823667  -0.307181
C  0.021251  9.823667  -0.435086
C  8.830644  10.553000  -0.332459
C  15.145562  8.371221  -0.570643
C  0.021251  8.371221  -0.550909
C  7.582124  9.823667  -0.446299
C  13.876357  7.631998  -0.559555
C  -1.214289  7.631998  -0.417290
C  7.582124  8.371221  -0.613507
C  13.876357  6.197900  -0.565605
C  -1.214289  6.197900  -0.412546
C  6.330357  7.631998  -0.451403
C  12.623562  5.453610  -0.398268
C  -2.463372  5.453610  -0.272046
C  6.330357  6.197900  -0.477899
C  12.623562  4.000000  -0.429240
C  -2.463372  4.000000  -0.105989
C  7.582124  12.724286  -0.129698
C  13.876357  10.553000  -0.223173
C  -1.214289  10.553000  -0.143283
C  6.330357  12.029000  -0.247679
C  12.623562  9.823667  -0.366393
C  -2.463372  9.823667  -0.123176
C  6.330357  10.553000  -0.381344
C  12.623562  8.371221  -0.371429
C  -2.463372  8.371221  -0.289552
C  5.067250  9.823667  -0.358574
C  -3.721000  7.631998  -0.206207
C  5.067250  8.371221  -0.380580
C  -3.721000  6.197900  -0.208066
C  5.067250  12.724286  -0.225216
C  3.815571  12.029000  -0.213679
C  3.815571  10.553000  -0.219578
C  2.546438  12.724286  -0.081051
C  1.302141  12.029000  0.017651
C  6.330357  3.272000  -0.467617
C  15.145562  12.724286  -0.120539
C  0.021251  12.724286  0.251529
C  13.876357  12.029000  -0.229535
C  -1.214289  12.029000  0.161706
C  12.623562  12.724286  -0.245777
C  6.330357  1.797813  -0.370068
C  8.830644  1.797813  -0.248913
C  11.361143  1.797813  -0.358674
C  10.098375  1.101000  -0.262655
C  7.582124  1.101000  -0.266569
C  5.067250  1.101000  -0.337768
C  12.623562  1.101000  -0.330366
