142
frame	973
H  17.693000  13.826000  0.000000
H  19.858000  12.564000  0.000000
H  21.106000  10.363000  0.000000
H  22.366000  5.656000  0.000000
H  22.367000  8.165000  0.000000
H  19.852000  1.261000  0.000000
H  17.690000  -0.000000  0.000000
H  21.104000  3.459000  0.000000
H  2.530000  -0.005000  0.000000
H  15.160000  -0.002000  0.000000
H  0.000000  -0.000000  0.000000
H  -2.163000  1.262000  0.000000
H  -3.415000  3.463000  0.000000
H  -4.677000  8.168000  0.000000
H  -4.678000  5.662000  0.000000
H  -2.159000  12.565000  0.000000
H  10.109000  13.837000  0.000000
H  7.585000  13.838000  0.000000
H  5.062000  13.833000  0.000000
H  2.535000  13.828000  0.000000
H  15.163000  13.830000  0.000000
H  0.007000  13.825000  0.000000
H  -3.412000  10.366000  0.000000
H  12.635000  13.835000  0.000000
H  10.108000  -0.010000  0.000000
H  7.583000  -0.012000  0.000000
H  5.058000  -0.011000  0.000000
H  12.631000  -0.009000  0.000000
C  16.391568  10.553000  0.059293
C  16.391568  12.029000  0.009785
C  17.670751  12.724286  0.081824
C  17.670751  8.371221  0.159003
C  17.670751  9.823667  0.074659
C  18.905140  10.553000  0.125488
C  18.905140  12.029000  0.156795
C  17.670751  4.000000  0.088610
C  17.670751  5.453610  0.142999
C  18.905140  6.197900  0.346577
C  18.905140  7.631998  0.352221
C  20.154752  8.371221  0.276476
C  20.154752  9.823667  0.124407
C  18.905140  3.272000  0.137129
C  20.154752  4.000000  0.146128
C  20.154752  5.453610  0.288849
C  21.411000  6.197900  0.228873
C  21.411000  7.631998  0.222447
C  17.670751  1.101000  0.074129
C  18.905140  1.797813  0.166929
C  5.067250  5.453610  0.712385
C  5.067250  4.000000  0.475086
C  3.815571  3.272000  0.163203
C  3.815571  1.797813  -0.055117
C  11.361143  3.272000  0.580031
C  2.546438  1.101000  -0.094107
C  3.815571  7.631998  0.447528
C  3.815571  6.197900  0.442425
C  11.361143  7.631998  0.825341
C  2.546438  5.453610  0.208072
C  11.361143  6.197900  0.815455
C  2.546438  4.000000  0.113646
C  10.098375  5.453610  0.747389
C  16.391568  3.272000  0.043253
C  1.302141  3.272000  0.039022
C  10.098375  4.000000  0.759871
C  16.391568  1.797813  -0.009914
C  1.302141  1.797813  -0.011147
C  8.830644  3.272000  0.741500
C  15.145562  1.101000  -0.088797
C  0.021251  1.101000  0.074282
C  11.361143  12.029000  0.360635
C  2.546438  9.823667  0.144056
C  11.361143  10.553000  0.647696
C  2.546438  8.371221  0.231477
C  10.098375  9.823667  0.826761
C  16.391568  7.631998  0.087724
C  1.302141  7.631998  0.073769
C  10.098375  8.371221  0.768545
C  16.391568  6.197900  0.072521
C  1.302141  6.197900  0.068501
C  15.145562  5.453610  0.206034
C  0.021251  5.453610  0.120205
C  8.830644  7.631998  0.714752
C  8.830644  6.197900  0.693285
C  15.145562  4.000000  0.111106
C  0.021251  4.000000  0.045462
C  7.582124  5.453610  0.753608
C  13.876357  3.272000  0.172856
C  -1.214289  3.272000  0.101565
C  7.582124  4.000000  0.777502
C  13.876357  1.797813  -0.062468
C  -1.214289  1.797813  0.127428
C  10.098375  12.724286  0.354455
C  1.302141  10.553000  0.063322
C  8.830644  12.029000  0.578539
C  15.145562  9.823667  0.133619
C  0.021251  9.823667  0.046731
C  8.830644  10.553000  0.832855
C  15.145562  8.371221  0.225237
C  0.021251  8.371221  0.128912
C  7.582124  9.823667  0.837357
C  13.876357  7.631998  0.470803
C  -1.214289  7.631998  0.290238
C  7.582124  8.371221  0.798143
C  13.876357  6.197900  0.456405
C  -1.214289  6.197900  0.305000
C  6.330357  7.631998  0.845396
C  12.623562  5.453610  0.702271
C  -2.463372  5.453610  0.194560
C  6.330357  6.197900  0.828365
C  12.623562  4.000000  0.472282
C  -2.463372  4.000000  0.072597
C  7.582124  12.724286  0.378400
C  13.876357  10.553000  0.216822
C  -1.214289  10.553000  0.083106
C  6.330357  12.029000  0.390147
C  12.623562  9.823667  0.523647
C  -2.463372  9.823667  0.044844
C  6.330357  10.553000  0.648216
C  12.623562  8.371221  0.720098
C  -2.463372  8.371221  0.195304
C  5.067250  9.823667  0.519463
C  -3.721000  7.631998  0.104435
C  5.067250  8.371221  0.716461
C  -3.721000  6.197900  0.108345
C  5.067250  12.724286  0.146770
C  3.815571  12.029000  0.018897
C  3.815571  10.553000  0.215096
C  2.546438  12.724286  -0.023402
C  1.302141  12.029000  0.025960
C  6.330357  3.272000  0.580508
C  15.145562  12.724286  -0.041544
C  0.021251  12.724286  0.094970
C  13.876357  12.029000  -0.007429
C  -1.214289  12.029000  0.131128
C  12.623562  12.724286  0.109265
C  6.330357  1.797813  0.280319
C  8.830644  1.797813  0.454735
C  11.361143  1.797813  0.273418
C  10.098375  1.101000  0.221958
C  7.582124  1.101000  0.241929
C  5.067250  1.101000  0.029670
C  12.623562  1.101000  0.024478
