142
frame	513
H  17.693000  13.826000  0.000000
H  19.858000  12.564000  0.000000
H  21.106000  10.363000  0.000000
H  22.366000  5.656000  0.000000
H  22.367000  8.165000  0.000000
H  19.852000  1.261000  0.000000
H  17.690000  -0.000000  0.000000
H  21.104000  3.459000  0.000000
H  2.530000  -0.005000  0.000000
H  15.160000  -0.002000  0.000000
H  0.000000  -0.000000  0.000000
H  -2.163000  1.262000  0.000000
H  -3.415000  3.463000  0.000000
H  -4.677000  8.168000  0.000000
H  -4.678000  5.662000  0.000000
H  -2.159000  12.565000  0.000000
H  10.109000  13.837000  0.000000
H  7.585000  13.838000  0.000000
H  5.062000  13.833000  0.000000
H  2.535000  13.828000  0.000000
H  15.163000  13.830000  0.000000
H  0.007000  13.825000  0.000000
H  -3.412000  10.366000  0.000000
H  12.635000  13.835000  0.000000
H  10.108000  -0.010000  0.000000
H  7.583000  -0.012000  0.000000
H  5.058000  -0.011000  0.000000
H  12.631000  -0.009000  0.000000
C  16.391568  10.553000  0.045488
C  16.391568  12.029000  0.086663
C  17.670751  12.724286  0.051827
C  17.670751  8.371221  -0.101408
C  17.670751  9.823667  -0.095512
C  18.905140  10.553000  -0.136894
C  18.905140  12.029000  -0.034134
C  17.670751  4.000000  -0.099315
C  17.670751  5.453610  -0.101059
C  18.905140  6.197900  -0.015074
C  18.905140  7.631998  -0.013114
C  20.154752  8.371221  -0.026382
C  20.154752  9.823667  -0.129899
C  18.905140  3.272000  -0.123369
C  20.154752  4.000000  -0.110849
C  20.154752  5.453610  -0.008329
C  21.411000  6.197900  0.063576
C  21.411000  7.631998  0.066310
C  17.670751  1.101000  0.031731
C  18.905140  1.797813  -0.039102
C  5.067250  5.453610  -0.462234
C  5.067250  4.000000  -0.266414
C  3.815571  3.272000  -0.242679
C  3.815571  1.797813  -0.101180
C  11.361143  3.272000  -0.156286
C  2.546438  1.101000  0.010293
C  3.815571  7.631998  -0.607206
C  3.815571  6.197900  -0.635440
C  11.361143  7.631998  -0.241801
C  2.546438  5.453610  -0.433056
C  11.361143  6.197900  -0.257153
C  2.546438  4.000000  -0.174264
C  10.098375  5.453610  -0.129700
C  16.391568  3.272000  0.027501
C  1.302141  3.272000  0.030683
C  10.098375  4.000000  -0.078561
C  16.391568  1.797813  0.061356
C  1.302141  1.797813  0.050587
C  8.830644  3.272000  -0.176543
C  15.145562  1.101000  0.010439
C  0.021251  1.101000  0.034405
C  11.361143  12.029000  -0.063334
C  2.546438  9.823667  -0.144594
C  11.361143  10.553000  -0.086605
C  2.546438  8.371221  -0.419753
C  10.098375  9.823667  -0.045370
C  16.391568  7.631998  -0.287815
C  1.302141  7.631998  -0.310374
C  10.098375  8.371221  -0.117903
C  16.391568  6.197900  -0.298960
C  1.302141  6.197900  -0.317314
C  15.145562  5.453610  -0.417540
C  0.021251  5.453610  -0.144790
C  8.830644  7.631998  -0.053611
C  8.830644  6.197900  -0.049808
C  15.145562  4.000000  -0.171616
C  0.021251  4.000000  -0.133416
C  7.582124  5.453610  -0.151579
C  13.876357  3.272000  -0.227829
C  -1.214289  3.272000  -0.171179
C  7.582124  4.000000  -0.100720
C  13.876357  1.797813  -0.111890
C  -1.214289  1.797813  -0.050791
C  10.098375  12.724286  -0.087855
C  1.302141  10.553000  0.044548
C  8.830644  12.029000  -0.135977
C  15.145562  9.823667  -0.151532
C  0.021251  9.823667  -0.124702
C  8.830644  10.553000  -0.109081
C  15.145562  8.371221  -0.403520
C  0.021251  8.371221  -0.142211
C  7.582124  9.823667  -0.052741
C  13.876357  7.631998  -0.590586
C  -1.214289  7.631998  -0.086963
C  7.582124  8.371221  -0.145532
C  13.876357  6.197900  -0.593876
C  -1.214289  6.197900  -0.075702
C  6.330357  7.631998  -0.269606
C  12.623562  5.453610  -0.430534
C  -2.463372  5.453610  -0.103576
C  6.330357  6.197900  -0.269010
C  12.623562  4.000000  -0.243132
C  -2.463372  4.000000  -0.183986
C  7.582124  12.724286  -0.081224
C  13.876357  10.553000  -0.185473
C  -1.214289  10.553000  -0.167506
C  6.330357  12.029000  -0.042975
C  12.623562  9.823667  -0.203593
C  -2.463372  9.823667  -0.192228
C  6.330357  10.553000  -0.104308
C  12.623562  8.371221  -0.409856
C  -2.463372  8.371221  -0.107618
C  5.067250  9.823667  -0.232071
C  -3.721000  7.631998  -0.062631
C  5.067250  8.371221  -0.441128
C  -3.721000  6.197900  -0.050498
C  5.067250  12.724286  0.039237
C  3.815571  12.029000  -0.026347
C  3.815571  10.553000  -0.192195
C  2.546438  12.724286  0.083328
C  1.302141  12.029000  0.083675
C  6.330357  3.272000  -0.164482
C  15.145562  12.724286  0.039911
C  0.021251  12.724286  0.045387
C  13.876357  12.029000  -0.053697
C  -1.214289  12.029000  -0.053758
C  12.623562  12.724286  0.014971
C  6.330357  1.797813  -0.156508
C  8.830644  1.797813  -0.242551
C  11.361143  1.797813  -0.158232
C  10.098375  1.101000  -0.219157
C  7.582124  1.101000  -0.219297
C  5.067250  1.101000  -0.075849
C  12.623562  1.101000  -0.079293
