142
frame	718
H  17.693000  13.826000  0.000000
H  19.858000  12.564000  0.000000
H  21.106000  10.363000  0.000000
H  22.366000  5.656000  0.000000
H  22.367000  8.165000  0.000000
H  19.852000  1.261000  0.000000
H  17.690000  -0.000000  0.000000
H  21.104000  3.459000  0.000000
H  2.530000  -0.005000  0.000000
H  15.160000  -0.002000  0.000000
H  0.000000  -0.000000  0.000000
H  -2.163000  1.262000  0.000000
H  -3.415000  3.463000  0.000000
H  -4.677000  8.168000  0.000000
H  -4.678000  5.662000  0.000000
H  -2.159000  12.565000  0.000000
H  10.109000  13.837000  0.000000
H  7.585000  13.838000  0.000000
H  5.062000  13.833000  0.000000
H  2.535000  13.828000  0.000000
H  15.163000  13.830000  0.000000
H  0.007000  13.825000  0.000000
H  -3.412000  10.366000  0.000000
H  12.635000  13.835000  0.000000
H  10.108000  -0.010000  0.000000
H  7.583000  -0.012000  0.000000
H  5.058000  -0.011000  0.000000
H  12.631000  -0.009000  0.000000
C  16.391568  10.553000  0.476822
C  16.391568  12.029000  0.363752
C  17.670751  12.724286  0.263560
C  17.670751  8.371221  0.613189
C  17.670751  9.823667  0.689114
C  18.905140  10.553000  0.584314
C  18.905140  12.029000  0.306647
C  17.670751  4.000000  0.695383
C  17.670751  5.453610  0.630803
C  18.905140  6.197900  0.597333
C  18.905140  7.631998  0.601519
C  20.154752  8.371221  0.544928
C  20.154752  9.823667  0.492502
C  18.905140  3.272000  0.589271
C  20.154752  4.000000  0.505262
C  20.154752  5.453610  0.557194
C  21.411000  6.197900  0.432559
C  21.411000  7.631998  0.435149
C  17.670751  1.101000  0.267006
C  18.905140  1.797813  0.312703
C  5.067250  5.453610  0.209719
C  5.067250  4.000000  0.198612
C  3.815571  3.272000  0.158013
C  3.815571  1.797813  0.117165
C  11.361143  3.272000  0.109690
C  2.546438  1.101000  0.182027
C  3.815571  7.631998  0.246010
C  3.815571  6.197900  0.216826
C  11.361143  7.631998  0.165445
C  2.546438  5.453610  0.262672
C  11.361143  6.197900  0.139345
C  2.546438  4.000000  0.199751
C  10.098375  5.453610  0.122407
C  16.391568  3.272000  0.451897
C  1.302141  3.272000  0.466179
C  10.098375  4.000000  0.082789
C  16.391568  1.797813  0.359614
C  1.302141  1.797813  0.351716
C  8.830644  3.272000  0.005901
C  15.145562  1.101000  0.186097
C  0.021251  1.101000  0.269843
C  11.361143  12.029000  0.096559
C  2.546438  9.823667  0.251953
C  11.361143  10.553000  0.161160
C  2.546438  8.371221  0.282314
C  10.098375  9.823667  0.148128
C  16.391568  7.631998  0.380265
C  1.302141  7.631998  0.374597
C  10.098375  8.371221  0.163233
C  16.391568  6.197900  0.366795
C  1.302141  6.197900  0.371212
C  15.145562  5.453610  0.240991
C  0.021251  5.453610  0.609210
C  8.830644  7.631998  0.160707
C  8.830644  6.197900  0.136533
C  15.145562  4.000000  0.188727
C  0.021251  4.000000  0.690110
C  7.582124  5.453610  0.117795
C  13.876357  3.272000  0.127647
C  -1.214289  3.272000  0.560119
C  7.582124  4.000000  0.096965
C  13.876357  1.797813  0.092865
C  -1.214289  1.797813  0.290831
C  10.098375  12.724286  0.139636
C  1.302141  10.553000  0.502165
C  8.830644  12.029000  0.227138
C  15.145562  9.823667  0.207977
C  0.021251  9.823667  0.709792
C  8.830644  10.553000  0.098260
C  15.145562  8.371221  0.251507
C  0.021251  8.371221  0.611311
C  7.582124  9.823667  0.179427
C  13.876357  7.631998  0.189770
C  -1.214289  7.631998  0.527885
C  7.582124  8.371221  0.158739
C  13.876357  6.197900  0.168547
C  -1.214289  6.197900  0.529901
C  6.330357  7.631998  0.196910
C  12.623562  5.453610  0.166150
C  -2.463372  5.453610  0.475444
C  6.330357  6.197900  0.155585
C  12.623562  4.000000  0.174575
C  -2.463372  4.000000  0.441929
C  7.582124  12.724286  0.167695
C  13.876357  10.553000  0.160773
C  -1.214289  10.553000  0.570169
C  6.330357  12.029000  0.132984
C  12.623562  9.823667  0.215746
C  -2.463372  9.823667  0.432922
C  6.330357  10.553000  0.212768
C  12.623562  8.371221  0.210659
C  -2.463372  8.371221  0.469249
C  5.067250  9.823667  0.270771
C  -3.721000  7.631998  0.309676
C  5.067250  8.371221  0.253372
C  -3.721000  6.197900  0.315145
C  5.067250  12.724286  0.042269
C  3.815571  12.029000  0.204188
C  3.815571  10.553000  0.214299
C  2.546438  12.724286  0.265922
C  1.302141  12.029000  0.415455
C  6.330357  3.272000  0.106656
C  15.145562  12.724286  0.206006
C  0.021251  12.724286  0.295410
C  13.876357  12.029000  0.141558
C  -1.214289  12.029000  0.288824
C  12.623562  12.724286  -0.019615
C  6.330357  1.797813  0.007990
C  8.830644  1.797813  0.108800
C  11.361143  1.797813  -0.011238
C  10.098375  1.101000  0.012187
C  7.582124  1.101000  0.018350
C  5.067250  1.101000  -0.081939
C  12.623562  1.101000  -0.122661
