142
frame	233
H  17.693000  13.826000  0.000000
H  19.858000  12.564000  0.000000
H  21.106000  10.363000  0.000000
H  22.366000  5.656000  0.000000
H  22.367000  8.165000  0.000000
H  19.852000  1.261000  0.000000
H  17.690000  -0.000000  0.000000
H  21.104000  3.459000  0.000000
H  2.530000  -0.005000  0.000000
H  15.160000  -0.002000  0.000000
H  0.000000  -0.000000  0.000000
H  -2.163000  1.262000  0.000000
H  -3.415000  3.463000  0.000000
H  -4.677000  8.168000  0.000000
H  -4.678000  5.662000  0.000000
H  -2.159000  12.565000  0.000000
H  10.109000  13.837000  0.000000
H  7.585000  13.838000  0.000000
H  5.062000  13.833000  0.000000
H  2.535000  13.828000  0.000000
H  15.163000  13.830000  0.000000
H  0.007000  13.825000  0.000000
H  -3.412000  10.366000  0.000000
H  12.635000  13.835000  0.000000
H  10.108000  -0.010000  0.000000
H  7.583000  -0.012000  0.000000
H  5.058000  -0.011000  0.000000
H  12.631000  -0.009000  0.000000
C  16.391568  10.553000  -0.253102
C  16.391568  12.029000  -0.148806
C  17.670751  12.724286  -0.036702
C  17.670751  8.371221  0.135377
C  17.670751  9.823667  -0.198262
C  18.905140  10.553000  -0.160360
C  18.905140  12.029000  -0.074625
C  17.670751  4.000000  -0.202898
C  17.670751  5.453610  0.119599
C  18.905140  6.197900  0.462183
C  18.905140  7.631998  0.474875
C  20.154752  8.371221  0.274361
C  20.154752  9.823667  -0.025284
C  18.905140  3.272000  -0.158366
C  20.154752  4.000000  0.007515
C  20.154752  5.453610  0.268441
C  21.411000  6.197900  0.239400
C  21.411000  7.631998  0.233977
C  17.670751  1.101000  -0.039004
C  18.905140  1.797813  -0.049792
C  5.067250  5.453610  -0.709975
C  5.067250  4.000000  -0.508241
C  3.815571  3.272000  -0.327334
C  3.815571  1.797813  -0.286033
C  11.361143  3.272000  -0.475736
C  2.546438  1.101000  -0.174561
C  3.815571  7.631998  -0.665875
C  3.815571  6.197900  -0.684960
C  11.361143  7.631998  -0.774121
C  2.546438  5.453610  -0.340344
C  11.361143  6.197900  -0.777187
C  2.546438  4.000000  -0.291119
C  10.098375  5.453610  -0.741794
C  16.391568  3.272000  -0.254895
C  1.302141  3.272000  -0.282164
C  10.098375  4.000000  -0.566179
C  16.391568  1.797813  -0.168070
C  1.302141  1.797813  -0.184524
C  8.830644  3.272000  -0.447130
C  15.145562  1.101000  -0.170494
C  0.021251  1.101000  -0.041991
C  11.361143  12.029000  -0.260538
C  2.546438  9.823667  -0.255093
C  11.361143  10.553000  -0.398199
C  2.546438  8.371221  -0.314292
C  10.098375  9.823667  -0.503358
C  16.391568  7.631998  0.006951
C  1.302141  7.631998  -0.015568
C  10.098375  8.371221  -0.703380
C  16.391568  6.197900  -0.005001
C  1.302141  6.197900  -0.023651
C  15.145562  5.453610  -0.315049
C  0.021251  5.453610  0.083990
C  8.830644  7.631998  -0.814302
C  8.830644  6.197900  -0.829006
C  15.145562  4.000000  -0.289950
C  0.021251  4.000000  -0.244835
C  7.582124  5.453610  -0.742655
C  13.876357  3.272000  -0.333361
C  -1.214289  3.272000  -0.203497
C  7.582124  4.000000  -0.565175
C  13.876357  1.797813  -0.302394
C  -1.214289  1.797813  -0.089988
C  10.098375  12.724286  -0.145182
C  1.302141  10.553000  -0.242991
C  8.830644  12.029000  -0.157269
C  15.145562  9.823667  -0.259111
C  0.021251  9.823667  -0.224128
C  8.830644  10.553000  -0.354180
C  15.145562  8.371221  -0.313901
C  0.021251  8.371221  0.101969
C  7.582124  9.823667  -0.487133
C  13.876357  7.631998  -0.657489
C  -1.214289  7.631998  0.423253
C  7.582124  8.371221  -0.712244
C  13.876357  6.197900  -0.654750
C  -1.214289  6.197900  0.423595
C  6.330357  7.631998  -0.775998
C  12.623562  5.453610  -0.698213
C  -2.463372  5.453610  0.197089
C  6.330357  6.197900  -0.790977
C  12.623562  4.000000  -0.496711
C  -2.463372  4.000000  -0.071508
C  7.582124  12.724286  -0.128707
C  13.876357  10.553000  -0.291484
C  -1.214289  10.553000  -0.194839
C  6.330357  12.029000  -0.242154
C  12.623562  9.823667  -0.446365
C  -2.463372  9.823667  -0.066681
C  6.330357  10.553000  -0.392427
C  12.623562  8.371221  -0.690995
C  -2.463372  8.371221  0.183888
C  5.067250  9.823667  -0.437687
C  -3.721000  7.631998  0.110991
C  5.067250  8.371221  -0.684954
C  -3.721000  6.197900  0.123100
C  5.067250  12.724286  -0.128829
C  3.815571  12.029000  -0.199291
C  3.815571  10.553000  -0.271662
C  2.546438  12.724286  -0.095308
C  1.302141  12.029000  -0.142202
C  6.330357  3.272000  -0.481287
C  15.145562  12.724286  -0.134588
C  0.021251  12.724286  -0.020199
C  13.876357  12.029000  -0.242830
C  -1.214289  12.029000  -0.083371
C  12.623562  12.724286  -0.171846
C  6.330357  1.797813  -0.359791
C  8.830644  1.797813  -0.288140
C  11.361143  1.797813  -0.362867
C  10.098375  1.101000  -0.280488
C  7.582124  1.101000  -0.268715
C  5.067250  1.101000  -0.243026
C  12.623562  1.101000  -0.252817
