142
frame	950
H  17.693000  13.826000  0.000000
H  19.858000  12.564000  0.000000
H  21.106000  10.363000  0.000000
H  22.366000  5.656000  0.000000
H  22.367000  8.165000  0.000000
H  19.852000  1.261000  0.000000
H  17.690000  -0.000000  0.000000
H  21.104000  3.459000  0.000000
H  2.530000  -0.005000  0.000000
H  15.160000  -0.002000  0.000000
H  0.000000  -0.000000  0.000000
H  -2.163000  1.262000  0.000000
H  -3.415000  3.463000  0.000000
H  -4.677000  8.168000  0.000000
H  -4.678000  5.662000  0.000000
H  -2.159000  12.565000  0.000000
H  10.109000  13.837000  0.000000
H  7.585000  13.838000  0.000000
H  5.062000  13.833000  0.000000
H  2.535000  13.828000  0.000000
H  15.163000  13.830000  0.000000
H  0.007000  13.825000  0.000000
H  -3.412000  10.366000  0.000000
H  12.635000  13.835000  0.000000
H  10.108000  -0.010000  0.000000
H  7.583000  -0.012000  0.000000
H  5.058000  -0.011000  0.000000
H  12.631000  -0.009000  0.000000
C  16.391568  10.553000  0.136697
C  16.391568  12.029000  0.089646
C  17.670751  12.724286  0.100886
C  17.670751  8.371221  0.046359
C  17.670751  9.823667  0.177800
C  18.905140  10.553000  0.285236
C  18.905140  12.029000  0.192253
C  17.670751  4.000000  0.166023
C  17.670751  5.453610  0.047911
C  18.905140  6.197900  0.079538
C  18.905140  7.631998  0.072514
C  20.154752  8.371221  0.220449
C  20.154752  9.823667  0.319056
C  18.905140  3.272000  0.290718
C  20.154752  4.000000  0.328629
C  20.154752  5.453610  0.222070
C  21.411000  6.197900  0.294497
C  21.411000  7.631998  0.287649
C  17.670751  1.101000  0.089753
C  18.905140  1.797813  0.201799
C  5.067250  5.453610  0.591257
C  5.067250  4.000000  0.445188
C  3.815571  3.272000  0.162991
C  3.815571  1.797813  0.043419
C  11.361143  3.272000  0.586159
C  2.546438  1.101000  -0.071685
C  3.815571  7.631998  0.413609
C  3.815571  6.197900  0.407252
C  11.361143  7.631998  0.937388
C  2.546438  5.453610  0.195620
C  11.361143  6.197900  0.921678
C  2.546438  4.000000  0.173774
C  10.098375  5.453610  0.874929
C  16.391568  3.272000  0.121300
C  1.302141  3.272000  0.127549
C  10.098375  4.000000  0.821307
C  16.391568  1.797813  0.053014
C  1.302141  1.797813  0.057557
C  8.830644  3.272000  0.778904
C  15.145562  1.101000  -0.088879
C  0.021251  1.101000  0.072146
C  11.361143  12.029000  0.503161
C  2.546438  9.823667  0.210026
C  11.361143  10.553000  0.653753
C  2.546438  8.371221  0.201669
C  10.098375  9.823667  0.874359
C  16.391568  7.631998  0.100361
C  1.302141  7.631998  0.094283
C  10.098375  8.371221  0.919691
C  16.391568  6.197900  0.103321
C  1.302141  6.197900  0.095785
C  15.145562  5.453610  0.209948
C  0.021251  5.453610  0.045646
C  8.830644  7.631998  0.758651
C  8.830644  6.197900  0.736296
C  15.145562  4.000000  0.188268
C  0.021251  4.000000  0.187186
C  7.582124  5.453610  0.888188
C  13.876357  3.272000  0.155518
C  -1.214289  3.272000  0.259650
C  7.582124  4.000000  0.819126
C  13.876357  1.797813  0.051562
C  -1.214289  1.797813  0.183759
C  10.098375  12.724286  0.361249
C  1.302141  10.553000  0.146778
C  8.830644  12.029000  0.521530
C  15.145562  9.823667  0.207817
C  0.021251  9.823667  0.170166
C  8.830644  10.553000  0.847839
C  15.145562  8.371221  0.219751
C  0.021251  8.371221  0.025378
C  7.582124  9.823667  0.883205
C  13.876357  7.631998  0.399790
C  -1.214289  7.631998  0.016600
C  7.582124  8.371221  0.919329
C  13.876357  6.197900  0.399875
C  -1.214289  6.197900  0.014581
C  6.330357  7.631998  0.937956
C  12.623562  5.453610  0.595191
C  -2.463372  5.453610  0.142794
C  6.330357  6.197900  0.927695
C  12.623562  4.000000  0.439114
C  -2.463372  4.000000  0.265187
C  7.582124  12.724286  0.378781
C  13.876357  10.553000  0.193492
C  -1.214289  10.553000  0.256345
C  6.330357  12.029000  0.521699
C  12.623562  9.823667  0.472684
C  -2.463372  9.823667  0.256375
C  6.330357  10.553000  0.674037
C  12.623562  8.371221  0.613143
C  -2.463372  8.371221  0.125239
C  5.067250  9.823667  0.483902
C  -3.721000  7.631998  0.162193
C  5.067250  8.371221  0.621840
C  -3.721000  6.197900  0.167609
C  5.067250  12.724286  0.242670
C  3.815571  12.029000  0.123667
C  3.815571  10.553000  0.216173
C  2.546438  12.724286  -0.004870
C  1.302141  12.029000  0.103834
C  6.330357  3.272000  0.603600
C  15.145562  12.724286  -0.030193
C  0.021251  12.724286  0.113199
C  13.876357  12.029000  0.118079
C  -1.214289  12.029000  0.196219
C  12.623562  12.724286  0.217732
C  6.330357  1.797813  0.409500
C  8.830644  1.797813  0.399011
C  11.361143  1.797813  0.388589
C  10.098375  1.101000  0.211934
C  7.582124  1.101000  0.227510
C  5.067250  1.101000  0.129710
C  12.623562  1.101000  0.129408
