142
frame	476
H  17.693000  13.826000  0.000000
H  19.858000  12.564000  0.000000
H  21.106000  10.363000  0.000000
H  22.366000  5.656000  0.000000
H  22.367000  8.165000  0.000000
H  19.852000  1.261000  0.000000
H  17.690000  -0.000000  0.000000
H  21.104000  3.459000  0.000000
H  2.530000  -0.005000  0.000000
H  15.160000  -0.002000  0.000000
H  0.000000  -0.000000  0.000000
H  -2.163000  1.262000  0.000000
H  -3.415000  3.463000  0.000000
H  -4.677000  8.168000  0.000000
H  -4.678000  5.662000  0.000000
H  -2.159000  12.565000  0.000000
H  10.109000  13.837000  0.000000
H  7.585000  13.838000  0.000000
H  5.062000  13.833000  0.000000
H  2.535000  13.828000  0.000000
H  15.163000  13.830000  0.000000
H  0.007000  13.825000  0.000000
H  -3.412000  10.366000  0.000000
H  12.635000  13.835000  0.000000
H  10.108000  -0.010000  0.000000
H  7.583000  -0.012000  0.000000
H  5.058000  -0.011000  0.000000
H  12.631000  -0.009000  0.000000
C  16.391568  10.553000  -0.414207
C  16.391568  12.029000  -0.263319
C  17.670751  12.724286  -0.133006
C  17.670751  8.371221  -0.246688
C  17.670751  9.823667  -0.289748
C  18.905140  10.553000  -0.031293
C  18.905140  12.029000  -0.002862
C  17.670751  4.000000  -0.297083
C  17.670751  5.453610  -0.249754
C  18.905140  6.197900  -0.140497
C  18.905140  7.631998  -0.137134
C  20.154752  8.371221  0.052471
C  20.154752  9.823667  0.114684
C  18.905140  3.272000  -0.018070
C  20.154752  4.000000  0.125880
C  20.154752  5.453610  0.054799
C  21.411000  6.197900  0.168987
C  21.411000  7.631998  0.167758
C  17.670751  1.101000  -0.107234
C  18.905140  1.797813  0.025384
C  5.067250  5.453610  -0.545273
C  5.067250  4.000000  -0.367440
C  3.815571  3.272000  -0.297431
C  3.815571  1.797813  -0.156015
C  11.361143  3.272000  -0.182388
C  2.546438  1.101000  -0.144672
C  3.815571  7.631998  -0.590853
C  3.815571  6.197900  -0.599106
C  11.361143  7.631998  -0.373016
C  2.546438  5.453610  -0.540740
C  11.361143  6.197900  -0.391908
C  2.546438  4.000000  -0.496366
C  10.098375  5.453610  -0.181262
C  16.391568  3.272000  -0.426309
C  1.302141  3.272000  -0.449710
C  10.098375  4.000000  -0.079468
C  16.391568  1.797813  -0.292074
C  1.302141  1.797813  -0.264190
C  8.830644  3.272000  0.023124
C  15.145562  1.101000  -0.154717
C  0.021251  1.101000  -0.116084
C  11.361143  12.029000  -0.001968
C  2.546438  9.823667  -0.464186
C  11.361143  10.553000  -0.117491
C  2.546438  8.371221  -0.536768
C  10.098375  9.823667  -0.023399
C  16.391568  7.631998  -0.399029
C  1.302141  7.631998  -0.447233
C  10.098375  8.371221  -0.148598
C  16.391568  6.197900  -0.401113
C  1.302141  6.197900  -0.454388
C  15.145562  5.453610  -0.515650
C  0.021251  5.453610  -0.316538
C  8.830644  7.631998  -0.063769
C  8.830644  6.197900  -0.080495
C  15.145562  4.000000  -0.473295
C  0.021251  4.000000  -0.337047
C  7.582124  5.453610  -0.204828
C  13.876357  3.272000  -0.287859
C  -1.214289  3.272000  -0.048234
C  7.582124  4.000000  -0.080947
C  13.876357  1.797813  -0.158368
C  -1.214289  1.797813  -0.011079
C  10.098375  12.724286  0.166285
C  1.302141  10.553000  -0.430196
C  8.830644  12.029000  0.156770
C  15.145562  9.823667  -0.439495
C  0.021251  9.823667  -0.333404
C  8.830644  10.553000  0.089962
C  15.145562  8.371221  -0.492788
C  0.021251  8.371221  -0.307393
C  7.582124  9.823667  -0.031642
C  13.876357  7.631998  -0.566526
C  -1.214289  7.631998  -0.224006
C  7.582124  8.371221  -0.171301
C  13.876357  6.197900  -0.583559
C  -1.214289  6.197900  -0.217317
C  6.330357  7.631998  -0.409157
C  12.623562  5.453610  -0.522152
C  -2.463372  5.453610  -0.038869
C  6.330357  6.197900  -0.426528
C  12.623562  4.000000  -0.346225
C  -2.463372  4.000000  0.052758
C  7.582124  12.724286  0.171334
C  13.876357  10.553000  -0.240954
C  -1.214289  10.553000  -0.056149
C  6.330357  12.029000  0.004389
C  12.623562  9.823667  -0.303145
C  -2.463372  9.823667  0.035869
C  6.330357  10.553000  -0.133624
C  12.623562  8.371221  -0.503376
C  -2.463372  8.371221  -0.035218
C  5.067250  9.823667  -0.309170
C  -3.721000  7.631998  0.053077
C  5.067250  8.371221  -0.527114
C  -3.721000  6.197900  0.056116
C  5.067250  12.724286  -0.048989
C  3.815571  12.029000  -0.079682
C  3.815571  10.553000  -0.242419
C  2.546438  12.724286  -0.089977
C  1.302141  12.029000  -0.233006
C  6.330357  3.272000  -0.195644
C  15.145562  12.724286  -0.108662
C  0.021251  12.724286  -0.081808
C  13.876357  12.029000  -0.095153
C  -1.214289  12.029000  -0.010388
C  12.623562  12.724286  -0.066171
C  6.330357  1.797813  -0.105151
C  8.830644  1.797813  0.042334
C  11.361143  1.797813  -0.086326
C  10.098375  1.101000  0.037774
C  7.582124  1.101000  0.039811
C  5.067250  1.101000  -0.160037
C  12.623562  1.101000  -0.156963
