142
frame	633
H  17.693000  13.826000  0.000000
H  19.858000  12.564000  0.000000
H  21.106000  10.363000  0.000000
H  22.366000  5.656000  0.000000
H  22.367000  8.165000  0.000000
H  19.852000  1.261000  0.000000
H  17.690000  -0.000000  0.000000
H  21.104000  3.459000  0.000000
H  2.530000  -0.005000  0.000000
H  15.160000  -0.002000  0.000000
H  0.000000  -0.000000  0.000000
H  -2.163000  1.262000  0.000000
H  -3.415000  3.463000  0.000000
H  -4.677000  8.168000  0.000000
H  -4.678000  5.662000  0.000000
H  -2.159000  12.565000  0.000000
H  10.109000  13.837000  0.000000
H  7.585000  13.838000  0.000000
H  5.062000  13.833000  0.000000
H  2.535000  13.828000  0.000000
H  15.163000  13.830000  0.000000
H  0.007000  13.825000  0.000000
H  -3.412000  10.366000  0.000000
H  12.635000  13.835000  0.000000
H  10.108000  -0.010000  0.000000
H  7.583000  -0.012000  0.000000
H  5.058000  -0.011000  0.000000
H  12.631000  -0.009000  0.000000
C  16.391568  10.553000  0.157891
C  16.391568  12.029000  -0.030541
C  17.670751  12.724286  -0.171289
C  17.670751  8.371221  0.446905
C  17.670751  9.823667  0.250109
C  18.905140  10.553000  0.086404
C  18.905140  12.029000  -0.114484
C  17.670751  4.000000  0.249810
C  17.670751  5.453610  0.471368
C  18.905140  6.197900  0.317401
C  18.905140  7.631998  0.311289
C  20.154752  8.371221  0.239824
C  20.154752  9.823667  0.173997
C  18.905140  3.272000  0.086286
C  20.154752  4.000000  0.186501
C  20.154752  5.453610  0.267272
C  21.411000  6.197900  0.339408
C  21.411000  7.631998  0.334249
C  17.670751  1.101000  -0.168499
C  18.905140  1.797813  -0.097277
C  5.067250  5.453610  0.012672
C  5.067250  4.000000  0.066226
C  3.815571  3.272000  0.155061
C  3.815571  1.797813  0.137395
C  11.361143  3.272000  -0.171136
C  2.546438  1.101000  0.090792
C  3.815571  7.631998  0.263423
C  3.815571  6.197900  0.247162
C  11.361143  7.631998  -0.256571
C  2.546438  5.453610  0.369870
C  11.361143  6.197900  -0.264667
C  2.546438  4.000000  0.180188
C  10.098375  5.453610  -0.225414
C  16.391568  3.272000  0.145034
C  1.302141  3.272000  0.143031
C  10.098375  4.000000  -0.254803
C  16.391568  1.797813  -0.036539
C  1.302141  1.797813  -0.047528
C  8.830644  3.272000  -0.306901
C  15.145562  1.101000  0.070150
C  0.021251  1.101000  -0.196850
C  11.361143  12.029000  0.010900
C  2.546438  9.823667  0.222295
C  11.361143  10.553000  -0.119476
C  2.546438  8.371221  0.394777
C  10.098375  9.823667  -0.211202
C  16.391568  7.631998  0.627558
C  1.302141  7.631998  0.617848
C  10.098375  8.371221  -0.198397
C  16.391568  6.197900  0.619822
C  1.302141  6.197900  0.605892
C  15.145562  5.453610  0.374818
C  0.021251  5.453610  0.433069
C  8.830644  7.631998  -0.038334
C  8.830644  6.197900  -0.047181
C  15.145562  4.000000  0.185896
C  0.021251  4.000000  0.225706
C  7.582124  5.453610  -0.219396
C  13.876357  3.272000  0.138136
C  -1.214289  3.272000  0.062713
C  7.582124  4.000000  -0.246417
C  13.876357  1.797813  0.128311
C  -1.214289  1.797813  -0.126439
C  10.098375  12.724286  -0.008720
C  1.302141  10.553000  0.175741
C  8.830644  12.029000  -0.028561
C  15.145562  9.823667  0.202037
C  0.021251  9.823667  0.250188
C  8.830644  10.553000  -0.240740
C  15.145562  8.371221  0.391699
C  0.021251  8.371221  0.439870
C  7.582124  9.823667  -0.200948
C  13.876357  7.631998  0.247992
C  -1.214289  7.631998  0.287747
C  7.582124  8.371221  -0.206463
C  13.876357  6.197900  0.234866
C  -1.214289  6.197900  0.284881
C  6.330357  7.631998  -0.218735
C  12.623562  5.453610  -0.012871
C  -2.463372  5.453610  0.181808
C  6.330357  6.197900  -0.238577
C  12.623562  4.000000  0.051514
C  -2.463372  4.000000  0.117125
C  7.582124  12.724286  -0.004639
C  13.876357  10.553000  0.173198
C  -1.214289  10.553000  0.064892
C  6.330357  12.029000  0.023490
C  12.623562  9.823667  0.088033
C  -2.463372  9.823667  0.112706
C  6.330357  10.553000  -0.087071
C  12.623562  8.371221  0.015636
C  -2.463372  8.371221  0.184025
C  5.067250  9.823667  0.116707
C  -3.721000  7.631998  0.227598
C  5.067250  8.371221  0.034914
C  -3.721000  6.197900  0.231760
C  5.067250  12.724286  0.107618
C  3.815571  12.029000  0.221720
C  3.815571  10.553000  0.202082
C  2.546438  12.724286  0.158788
C  1.302141  12.029000  -0.004927
C  6.330357  3.272000  -0.174689
C  15.145562  12.724286  0.112285
C  0.021251  12.724286  -0.172151
C  13.876357  12.029000  0.166710
C  -1.214289  12.029000  -0.138858
C  12.623562  12.724286  0.062767
C  6.330357  1.797813  -0.084124
C  8.830644  1.797813  -0.146142
C  11.361143  1.797813  -0.092661
C  10.098375  1.101000  -0.145733
C  7.582124  1.101000  -0.149951
C  5.067250  1.101000  -0.010800
C  12.623562  1.101000  -0.022408
