142
frame	469
H  17.693000  13.826000  0.000000
H  19.858000  12.564000  0.000000
H  21.106000  10.363000  0.000000
H  22.366000  5.656000  0.000000
H  22.367000  8.165000  0.000000
H  19.852000  1.261000  0.000000
H  17.690000  -0.000000  0.000000
H  21.104000  3.459000  0.000000
H  2.530000  -0.005000  0.000000
H  15.160000  -0.002000  0.000000
H  0.000000  -0.000000  0.000000
H  -2.163000  1.262000  0.000000
H  -3.415000  3.463000  0.000000
H  -4.677000  8.168000  0.000000
H  -4.678000  5.662000  0.000000
H  -2.159000  12.565000  0.000000
H  10.109000  13.837000  0.000000
H  7.585000  13.838000  0.000000
H  5.062000  13.833000  0.000000
H  2.535000  13.828000  0.000000
H  15.163000  13.830000  0.000000
H  0.007000  13.825000  0.000000
H  -3.412000  10.366000  0.000000
H  12.635000  13.835000  0.000000
H  10.108000  -0.010000  0.000000
H  7.583000  -0.012000  0.000000
H  5.058000  -0.011000  0.000000
H  12.631000  -0.009000  0.000000
C  16.391568  10.553000  -0.438597
C  16.391568  12.029000  -0.349346
C  17.670751  12.724286  -0.162922
C  17.670751  8.371221  -0.339011
C  17.670751  9.823667  -0.317927
C  18.905140  10.553000  -0.012492
C  18.905140  12.029000  0.027974
C  17.670751  4.000000  -0.323239
C  17.670751  5.453610  -0.343481
C  18.905140  6.197900  -0.160435
C  18.905140  7.631998  -0.150238
C  20.154752  8.371221  0.094804
C  20.154752  9.823667  0.140712
C  18.905140  3.272000  0.001193
C  20.154752  4.000000  0.155765
C  20.154752  5.453610  0.103457
C  21.411000  6.197900  0.179567
C  21.411000  7.631998  0.187314
C  17.670751  1.101000  -0.147020
C  18.905140  1.797813  0.052115
C  5.067250  5.453610  -0.543600
C  5.067250  4.000000  -0.434564
C  3.815571  3.272000  -0.402159
C  3.815571  1.797813  -0.207568
C  11.361143  3.272000  -0.219670
C  2.546438  1.101000  -0.215133
C  3.815571  7.631998  -0.541490
C  3.815571  6.197900  -0.551614
C  11.361143  7.631998  -0.308967
C  2.546438  5.453610  -0.530073
C  11.361143  6.197900  -0.319922
C  2.546438  4.000000  -0.466972
C  10.098375  5.453610  -0.226779
C  16.391568  3.272000  -0.455104
C  1.302141  3.272000  -0.469163
C  10.098375  4.000000  -0.040825
C  16.391568  1.797813  -0.367718
C  1.302141  1.797813  -0.360110
C  8.830644  3.272000  0.030970
C  15.145562  1.101000  -0.220247
C  0.021251  1.101000  -0.151432
C  11.361143  12.029000  0.029629
C  2.546438  9.823667  -0.437638
C  11.361143  10.553000  -0.147017
C  2.546438  8.371221  -0.533349
C  10.098375  9.823667  0.008987
C  16.391568  7.631998  -0.454312
C  1.302141  7.631998  -0.512199
C  10.098375  8.371221  -0.192777
C  16.391568  6.197900  -0.465277
C  1.302141  6.197900  -0.519963
C  15.145562  5.453610  -0.504296
C  0.021251  5.453610  -0.415849
C  8.830644  7.631998  -0.183703
C  8.830644  6.197900  -0.197464
C  15.145562  4.000000  -0.441549
C  0.021251  4.000000  -0.369105
C  7.582124  5.453610  -0.251599
C  13.876357  3.272000  -0.390155
C  -1.214289  3.272000  -0.032458
C  7.582124  4.000000  -0.053222
C  13.876357  1.797813  -0.216017
C  -1.214289  1.797813  0.023907
C  10.098375  12.724286  0.176356
C  1.302141  10.553000  -0.455048
C  8.830644  12.029000  0.189354
C  15.145562  9.823667  -0.416481
C  0.021251  9.823667  -0.360174
C  8.830644  10.553000  0.111917
C  15.145562  8.371221  -0.481616
C  0.021251  8.371221  -0.404945
C  7.582124  9.823667  0.003949
C  13.876357  7.631998  -0.517009
C  -1.214289  7.631998  -0.231080
C  7.582124  8.371221  -0.212073
C  13.876357  6.197900  -0.522079
C  -1.214289  6.197900  -0.228361
C  6.330357  7.631998  -0.331899
C  12.623562  5.453610  -0.520734
C  -2.463372  5.453610  0.004806
C  6.330357  6.197900  -0.343213
C  12.623562  4.000000  -0.417817
C  -2.463372  4.000000  0.088674
C  7.582124  12.724286  0.185722
C  13.876357  10.553000  -0.331202
C  -1.214289  10.553000  -0.045708
C  6.330357  12.029000  0.039561
C  12.623562  9.823667  -0.372801
C  -2.463372  9.823667  0.069856
C  6.330357  10.553000  -0.167674
C  12.623562  8.371221  -0.499271
C  -2.463372  8.371221  0.006413
C  5.067250  9.823667  -0.385700
C  -3.721000  7.631998  0.060491
C  5.067250  8.371221  -0.520471
C  -3.721000  6.197900  0.063665
C  5.067250  12.724286  0.012147
C  3.815571  12.029000  -0.134994
C  3.815571  10.553000  -0.332976
C  2.546438  12.724286  -0.155999
C  1.302141  12.029000  -0.323377
C  6.330357  3.272000  -0.231232
C  15.145562  12.724286  -0.180217
C  0.021251  12.724286  -0.117862
C  13.876357  12.029000  -0.145739
C  -1.214289  12.029000  0.024869
C  12.623562  12.724286  0.000433
C  6.330357  1.797813  -0.060738
C  8.830644  1.797813  0.081926
C  11.361143  1.797813  -0.044652
C  10.098375  1.101000  0.055575
C  7.582124  1.101000  0.053709
C  5.067250  1.101000  -0.093906
C  12.623562  1.101000  -0.087330
