142
frame	961
H  17.693000  13.826000  0.000000
H  19.858000  12.564000  0.000000
H  21.106000  10.363000  0.000000
H  22.366000  5.656000  0.000000
H  22.367000  8.165000  0.000000
H  19.852000  1.261000  0.000000
H  17.690000  -0.000000  0.000000
H  21.104000  3.459000  0.000000
H  2.530000  -0.005000  0.000000
H  15.160000  -0.002000  0.000000
H  0.000000  -0.000000  0.000000
H  -2.163000  1.262000  0.000000
H  -3.415000  3.463000  0.000000
H  -4.677000  8.168000  0.000000
H  -4.678000  5.662000  0.000000
H  -2.159000  12.565000  0.000000
H  10.109000  13.837000  0.000000
H  7.585000  13.838000  0.000000
H  5.062000  13.833000  0.000000
H  2.535000  13.828000  0.000000
H  15.163000  13.830000  0.000000
H  0.007000  13.825000  0.000000
H  -3.412000  10.366000  0.000000
H  12.635000  13.835000  0.000000
H  10.108000  -0.010000  0.000000
H  7.583000  -0.012000  0.000000
H  5.058000  -0.011000  0.000000
H  12.631000  -0.009000  0.000000
C  16.391568  10.553000  0.104824
C  16.391568  12.029000  0.047161
C  17.670751  12.724286  0.097319
C  17.670751  8.371221  0.066006
C  17.670751  9.823667  0.086769
C  18.905140  10.553000  0.253111
C  18.905140  12.029000  0.209885
C  17.670751  4.000000  0.079947
C  17.670751  5.453610  0.060554
C  18.905140  6.197900  0.233133
C  18.905140  7.631998  0.239976
C  20.154752  8.371221  0.245474
C  20.154752  9.823667  0.224694
C  18.905140  3.272000  0.274927
C  20.154752  4.000000  0.233889
C  20.154752  5.453610  0.258960
C  21.411000  6.197900  0.262737
C  21.411000  7.631998  0.255998
C  17.670751  1.101000  0.092341
C  18.905140  1.797813  0.211272
C  5.067250  5.453610  0.664114
C  5.067250  4.000000  0.440910
C  3.815571  3.272000  0.138863
C  3.815571  1.797813  -0.048925
C  11.361143  3.272000  0.576127
C  2.546438  1.101000  -0.099809
C  3.815571  7.631998  0.423468
C  3.815571  6.197900  0.422952
C  11.361143  7.631998  0.943448
C  2.546438  5.453610  0.179691
C  11.361143  6.197900  0.932507
C  2.546438  4.000000  0.186035
C  10.098375  5.453610  0.790545
C  16.391568  3.272000  0.097675
C  1.302141  3.272000  0.094853
C  10.098375  4.000000  0.835089
C  16.391568  1.797813  0.010836
C  1.302141  1.797813  0.020754
C  8.830644  3.272000  0.789618
C  15.145562  1.101000  -0.110841
C  0.021251  1.101000  0.074629
C  11.361143  12.029000  0.452393
C  2.546438  9.823667  0.224669
C  11.361143  10.553000  0.649242
C  2.546438  8.371221  0.197991
C  10.098375  9.823667  0.890105
C  16.391568  7.631998  0.090199
C  1.302141  7.631998  0.082236
C  10.098375  8.371221  0.829168
C  16.391568  6.197900  0.078037
C  1.302141  6.197900  0.072351
C  15.145562  5.453610  0.195672
C  0.021251  5.453610  0.057214
C  8.830644  7.631998  0.660060
C  8.830644  6.197900  0.629619
C  15.145562  4.000000  0.196784
C  0.021251  4.000000  0.083141
C  7.582124  5.453610  0.814910
C  13.876357  3.272000  0.130728
C  -1.214289  3.272000  0.229012
C  7.582124  4.000000  0.832870
C  13.876357  1.797813  -0.040685
C  -1.214289  1.797813  0.186281
C  10.098375  12.724286  0.341798
C  1.302141  10.553000  0.118090
C  8.830644  12.029000  0.538701
C  15.145562  9.823667  0.214251
C  0.021251  9.823667  0.066860
C  8.830644  10.553000  0.861864
C  15.145562  8.371221  0.209208
C  0.021251  8.371221  0.039783
C  7.582124  9.823667  0.902663
C  13.876357  7.631998  0.430865
C  -1.214289  7.631998  0.184087
C  7.582124  8.371221  0.853152
C  13.876357  6.197900  0.415889
C  -1.214289  6.197900  0.172060
C  6.330357  7.631998  0.952354
C  12.623562  5.453610  0.660198
C  -2.463372  5.453610  0.168349
C  6.330357  6.197900  0.936357
C  12.623562  4.000000  0.441844
C  -2.463372  4.000000  0.170295
C  7.582124  12.724286  0.368893
C  13.876357  10.553000  0.180571
C  -1.214289  10.553000  0.218056
C  6.330357  12.029000  0.481511
C  12.623562  9.823667  0.476962
C  -2.463372  9.823667  0.150358
C  6.330357  10.553000  0.648753
C  12.623562  8.371221  0.675030
C  -2.463372  8.371221  0.157908
C  5.067250  9.823667  0.487086
C  -3.721000  7.631998  0.132841
C  5.067250  8.371221  0.674177
C  -3.721000  6.197900  0.137046
C  5.067250  12.724286  0.214640
C  3.815571  12.029000  0.028886
C  3.815571  10.553000  0.188647
C  2.546438  12.724286  -0.034555
C  1.302141  12.029000  0.061934
C  6.330357  3.272000  0.590716
C  15.145562  12.724286  -0.051420
C  0.021251  12.724286  0.109494
C  13.876357  12.029000  0.014868
C  -1.214289  12.029000  0.199646
C  12.623562  12.724286  0.183563
C  6.330357  1.797813  0.366424
C  8.830644  1.797813  0.412191
C  11.361143  1.797813  0.349861
C  10.098375  1.101000  0.199954
C  7.582124  1.101000  0.220092
C  5.067250  1.101000  0.096537
C  12.623562  1.101000  0.100465
