142
frame	810
H  17.693000  13.826000  0.000000
H  19.858000  12.564000  0.000000
H  21.106000  10.363000  0.000000
H  22.366000  5.656000  0.000000
H  22.367000  8.165000  0.000000
H  19.852000  1.261000  0.000000
H  17.690000  -0.000000  0.000000
H  21.104000  3.459000  0.000000
H  2.530000  -0.005000  0.000000
H  15.160000  -0.002000  0.000000
H  0.000000  -0.000000  0.000000
H  -2.163000  1.262000  0.000000
H  -3.415000  3.463000  0.000000
H  -4.677000  8.168000  0.000000
H  -4.678000  5.662000  0.000000
H  -2.159000  12.565000  0.000000
H  10.109000  13.837000  0.000000
H  7.585000  13.838000  0.000000
H  5.062000  13.833000  0.000000
H  2.535000  13.828000  0.000000
H  15.163000  13.830000  0.000000
H  0.007000  13.825000  0.000000
H  -3.412000  10.366000  0.000000
H  12.635000  13.835000  0.000000
H  10.108000  -0.010000  0.000000
H  7.583000  -0.012000  0.000000
H  5.058000  -0.011000  0.000000
H  12.631000  -0.009000  0.000000
C  16.391568  10.553000  0.193424
C  16.391568  12.029000  0.065127
C  17.670751  12.724286  0.093154
C  17.670751  8.371221  0.303209
C  17.670751  9.823667  0.112320
C  18.905140  10.553000  0.123106
C  18.905140  12.029000  0.117300
C  17.670751  4.000000  0.120984
C  17.670751  5.453610  0.304128
C  18.905140  6.197900  0.388361
C  18.905140  7.631998  0.389545
C  20.154752  8.371221  0.242071
C  20.154752  9.823667  0.205348
C  18.905140  3.272000  0.126698
C  20.154752  4.000000  0.218607
C  20.154752  5.453610  0.245050
C  21.411000  6.197900  0.162948
C  21.411000  7.631998  0.151729
C  17.670751  1.101000  0.074249
C  18.905140  1.797813  0.114839
C  5.067250  5.453610  0.739438
C  5.067250  4.000000  0.464850
C  3.815571  3.272000  0.381246
C  3.815571  1.797813  0.056294
C  11.361143  3.272000  0.281702
C  2.546438  1.101000  -0.052367
C  3.815571  7.631998  0.771949
C  3.815571  6.197900  0.761216
C  11.361143  7.631998  0.675967
C  2.546438  5.453610  0.636059
C  11.361143  6.197900  0.670020
C  2.546438  4.000000  0.421121
C  10.098375  5.453610  0.406428
C  16.391568  3.272000  0.172226
C  1.302141  3.272000  0.164250
C  10.098375  4.000000  0.312621
C  16.391568  1.797813  0.037578
C  1.302141  1.797813  0.016829
C  8.830644  3.272000  0.308976
C  15.145562  1.101000  -0.063378
C  0.021251  1.101000  0.064790
C  11.361143  12.029000  0.228149
C  2.546438  9.823667  0.465884
C  11.361143  10.553000  0.354507
C  2.546438  8.371221  0.657171
C  10.098375  9.823667  0.374686
C  16.391568  7.631998  0.454488
C  1.302141  7.631998  0.482968
C  10.098375  8.371221  0.435828
C  16.391568  6.197900  0.448586
C  1.302141  6.197900  0.475242
C  15.145562  5.453610  0.605821
C  0.021251  5.453610  0.304736
C  8.830644  7.631998  0.241844
C  8.830644  6.197900  0.207720
C  15.145562  4.000000  0.418696
C  0.021251  4.000000  0.112957
C  7.582124  5.453610  0.400825
C  13.876357  3.272000  0.370577
C  -1.214289  3.272000  0.112853
C  7.582124  4.000000  0.322615
C  13.876357  1.797813  0.053814
C  -1.214289  1.797813  0.111695
C  10.098375  12.724286  0.193531
C  1.302141  10.553000  0.207797
C  8.830644  12.029000  0.290355
C  15.145562  9.823667  0.434381
C  0.021251  9.823667  0.118933
C  8.830644  10.553000  0.391423
C  15.145562  8.371221  0.613883
C  0.021251  8.371221  0.315077
C  7.582124  9.823667  0.393475
C  13.876357  7.631998  0.733351
C  -1.214289  7.631998  0.353804
C  7.582124  8.371221  0.456692
C  13.876357  6.197900  0.716873
C  -1.214289  6.197900  0.367545
C  6.330357  7.631998  0.714624
C  12.623562  5.453610  0.706981
C  -2.463372  5.453610  0.187936
C  6.330357  6.197900  0.687775
C  12.623562  4.000000  0.428489
C  -2.463372  4.000000  0.173605
C  7.582124  12.724286  0.222892
C  13.876357  10.553000  0.422182
C  -1.214289  10.553000  0.123047
C  6.330357  12.029000  0.264767
C  12.623562  9.823667  0.487588
C  -2.463372  9.823667  0.157356
C  6.330357  10.553000  0.389565
C  12.623562  8.371221  0.727395
C  -2.463372  8.371221  0.186814
C  5.067250  9.823667  0.529903
C  -3.721000  7.631998  0.047294
C  5.067250  8.371221  0.761419
C  -3.721000  6.197900  0.046599
C  5.067250  12.724286  0.166302
C  3.815571  12.029000  0.149449
C  3.815571  10.553000  0.445065
C  2.546438  12.724286  0.032582
C  1.302141  12.029000  0.088421
C  6.330357  3.272000  0.297903
C  15.145562  12.724286  -0.012855
C  0.021251  12.724286  0.100975
C  13.876357  12.029000  0.138530
C  -1.214289  12.029000  0.129976
C  12.623562  12.724286  0.117162
C  6.330357  1.797813  0.150867
C  8.830644  1.797813  0.164677
C  11.361143  1.797813  0.099056
C  10.098375  1.101000  0.054989
C  7.582124  1.101000  0.075159
C  5.067250  1.101000  0.034598
C  12.623562  1.101000  0.005533
