142
frame	320
H  17.693000  13.826000  0.000000
H  19.858000  12.564000  0.000000
H  21.106000  10.363000  0.000000
H  22.366000  5.656000  0.000000
H  22.367000  8.165000  0.000000
H  19.852000  1.261000  0.000000
H  17.690000  -0.000000  0.000000
H  21.104000  3.459000  0.000000
H  2.530000  -0.005000  0.000000
H  15.160000  -0.002000  0.000000
H  0.000000  -0.000000  0.000000
H  -2.163000  1.262000  0.000000
H  -3.415000  3.463000  0.000000
H  -4.677000  8.168000  0.000000
H  -4.678000  5.662000  0.000000
H  -2.159000  12.565000  0.000000
H  10.109000  13.837000  0.000000
H  7.585000  13.838000  0.000000
H  5.062000  13.833000  0.000000
H  2.535000  13.828000  0.000000
H  15.163000  13.830000  0.000000
H  0.007000  13.825000  0.000000
H  -3.412000  10.366000  0.000000
H  12.635000  13.835000  0.000000
H  10.108000  -0.010000  0.000000
H  7.583000  -0.012000  0.000000
H  5.058000  -0.011000  0.000000
H  12.631000  -0.009000  0.000000
C  16.391568  10.553000  -0.248721
C  16.391568  12.029000  0.018757
C  17.670751  12.724286  0.234342
C  17.670751  8.371221  -0.508595
C  17.670751  9.823667  -0.402123
C  18.905140  10.553000  -0.108858
C  18.905140  12.029000  0.182715
C  17.670751  4.000000  -0.396105
C  17.670751  5.453610  -0.513200
C  18.905140  6.197900  -0.363032
C  18.905140  7.631998  -0.359840
C  20.154752  8.371221  -0.205047
C  20.154752  9.823667  -0.079992
C  18.905140  3.272000  -0.098798
C  20.154752  4.000000  -0.050798
C  20.154752  5.453610  -0.206607
C  21.411000  6.197900  -0.060836
C  21.411000  7.631998  -0.077902
C  17.670751  1.101000  0.225279
C  18.905140  1.797813  0.199531
C  5.067250  5.453610  -0.416527
C  5.067250  4.000000  -0.430255
C  3.815571  3.272000  -0.285515
C  3.815571  1.797813  -0.321125
C  11.361143  3.272000  -0.437556
C  2.546438  1.101000  -0.139960
C  3.815571  7.631998  -0.609198
C  3.815571  6.197900  -0.620402
C  11.361143  7.631998  -0.432715
C  2.546438  5.453610  -0.615968
C  11.361143  6.197900  -0.455937
C  2.546438  4.000000  -0.375095
C  10.098375  5.453610  -0.642717
C  16.391568  3.272000  -0.270278
C  1.302141  3.272000  -0.300358
C  10.098375  4.000000  -0.539500
C  16.391568  1.797813  -0.004659
C  1.302141  1.797813  -0.018686
C  8.830644  3.272000  -0.415221
C  15.145562  1.101000  -0.133456
C  0.021251  1.101000  0.208823
C  11.361143  12.029000  -0.295454
C  2.546438  9.823667  -0.335773
C  11.361143  10.553000  -0.371522
C  2.546438  8.371221  -0.602340
C  10.098375  9.823667  -0.462068
C  16.391568  7.631998  -0.606642
C  1.302141  7.631998  -0.657996
C  10.098375  8.371221  -0.599324
C  16.391568  6.197900  -0.618807
C  1.302141  6.197900  -0.661137
C  15.145562  5.453610  -0.585202
C  0.021251  5.453610  -0.590095
C  8.830644  7.631998  -0.891658
C  8.830644  6.197900  -0.922445
C  15.145562  4.000000  -0.350355
C  0.021251  4.000000  -0.458259
C  7.582124  5.453610  -0.630173
C  13.876357  3.272000  -0.256785
C  -1.214289  3.272000  -0.155450
C  7.582124  4.000000  -0.542302
C  13.876357  1.797813  -0.315032
C  -1.214289  1.797813  0.143403
C  10.098375  12.724286  -0.137434
C  1.302141  10.553000  -0.266737
C  8.830644  12.029000  -0.150067
C  15.145562  9.823667  -0.310161
C  0.021251  9.823667  -0.444997
C  8.830644  10.553000  -0.334445
C  15.145562  8.371221  -0.576624
C  0.021251  8.371221  -0.573275
C  7.582124  9.823667  -0.468592
C  13.876357  7.631998  -0.578381
C  -1.214289  7.631998  -0.441110
C  7.582124  8.371221  -0.592658
C  13.876357  6.197900  -0.589799
C  -1.214289  6.197900  -0.438565
C  6.330357  7.631998  -0.424205
C  12.623562  5.453610  -0.398790
C  -2.463372  5.453610  -0.308184
C  6.330357  6.197900  -0.456391
C  12.623562  4.000000  -0.413297
C  -2.463372  4.000000  -0.133209
C  7.582124  12.724286  -0.132493
C  13.876357  10.553000  -0.211927
C  -1.214289  10.553000  -0.152329
C  6.330357  12.029000  -0.284540
C  12.623562  9.823667  -0.351470
C  -2.463372  9.823667  -0.151661
C  6.330357  10.553000  -0.367334
C  12.623562  8.371221  -0.371105
C  -2.463372  8.371221  -0.324629
C  5.067250  9.823667  -0.345477
C  -3.721000  7.631998  -0.204003
C  5.067250  8.371221  -0.378851
C  -3.721000  6.197900  -0.207885
C  5.067250  12.724286  -0.240255
C  3.815571  12.029000  -0.230951
C  3.815571  10.553000  -0.206390
C  2.546438  12.724286  -0.060405
C  1.302141  12.029000  0.031922
C  6.330357  3.272000  -0.451379
C  15.145562  12.724286  -0.103022
C  0.021251  12.724286  0.246351
C  13.876357  12.029000  -0.245362
C  -1.214289  12.029000  0.162684
C  12.623562  12.724286  -0.261518
C  6.330357  1.797813  -0.407870
C  8.830644  1.797813  -0.272013
C  11.361143  1.797813  -0.397022
C  10.098375  1.101000  -0.261728
C  7.582124  1.101000  -0.268662
C  5.067250  1.101000  -0.355008
C  12.623562  1.101000  -0.350232
