142
frame	945
H  17.693000  13.826000  0.000000
H  19.858000  12.564000  0.000000
H  21.106000  10.363000  0.000000
H  22.366000  5.656000  0.000000
H  22.367000  8.165000  0.000000
H  19.852000  1.261000  0.000000
H  17.690000  -0.000000  0.000000
H  21.104000  3.459000  0.000000
H  2.530000  -0.005000  0.000000
H  15.160000  -0.002000  0.000000
H  0.000000  -0.000000  0.000000
H  -2.163000  1.262000  0.000000
H  -3.415000  3.463000  0.000000
H  -4.677000  8.168000  0.000000
H  -4.678000  5.662000  0.000000
H  -2.159000  12.565000  0.000000
H  10.109000  13.837000  0.000000
H  7.585000  13.838000  0.000000
H  5.062000  13.833000  0.000000
H  2.535000  13.828000  0.000000
H  15.163000  13.830000  0.000000
H  0.007000  13.825000  0.000000
H  -3.412000  10.366000  0.000000
H  12.635000  13.835000  0.000000
H  10.108000  -0.010000  0.000000
H  7.583000  -0.012000  0.000000
H  5.058000  -0.011000  0.000000
H  12.631000  -0.009000  0.000000
C  16.391568  10.553000  0.157543
C  16.391568  12.029000  0.102741
C  17.670751  12.724286  0.098342
C  17.670751  8.371221  0.059599
C  17.670751  9.823667  0.222681
C  18.905140  10.553000  0.279749
C  18.905140  12.029000  0.172866
C  17.670751  4.000000  0.213615
C  17.670751  5.453610  0.063184
C  18.905140  6.197900  0.013084
C  18.905140  7.631998  0.000945
C  20.154752  8.371221  0.214884
C  20.154752  9.823667  0.335865
C  18.905140  3.272000  0.274052
C  20.154752  4.000000  0.347013
C  20.154752  5.453610  0.211973
C  21.411000  6.197900  0.295804
C  21.411000  7.631998  0.291114
C  17.670751  1.101000  0.083243
C  18.905140  1.797813  0.187105
C  5.067250  5.453610  0.574011
C  5.067250  4.000000  0.453955
C  3.815571  3.272000  0.187719
C  3.815571  1.797813  0.093015
C  11.361143  3.272000  0.602882
C  2.546438  1.101000  -0.040830
C  3.815571  7.631998  0.412926
C  3.815571  6.197900  0.400223
C  11.361143  7.631998  0.894639
C  2.546438  5.453610  0.215292
C  11.361143  6.197900  0.877103
C  2.546438  4.000000  0.148253
C  10.098375  5.453610  0.910475
C  16.391568  3.272000  0.134171
C  1.302141  3.272000  0.145133
C  10.098375  4.000000  0.798877
C  16.391568  1.797813  0.070665
C  1.302141  1.797813  0.071500
C  8.830644  3.272000  0.757610
C  15.145562  1.101000  -0.055897
C  0.021251  1.101000  0.072840
C  11.361143  12.029000  0.504138
C  2.546438  9.823667  0.178477
C  11.361143  10.553000  0.666730
C  2.546438  8.371221  0.217380
C  10.098375  9.823667  0.856276
C  16.391568  7.631998  0.101382
C  1.302141  7.631998  0.091951
C  10.098375  8.371221  0.951147
C  16.391568  6.197900  0.109434
C  1.302141  6.197900  0.101882
C  15.145562  5.453610  0.223948
C  0.021251  5.453610  0.056301
C  8.830644  7.631998  0.856486
C  8.830644  6.197900  0.839601
C  15.145562  4.000000  0.157666
C  0.021251  4.000000  0.230608
C  7.582124  5.453610  0.910692
C  13.876357  3.272000  0.188927
C  -1.214289  3.272000  0.258380
C  7.582124  4.000000  0.804200
C  13.876357  1.797813  0.092048
C  -1.214289  1.797813  0.168362
C  10.098375  12.724286  0.378224
C  1.302141  10.553000  0.163262
C  8.830644  12.029000  0.524613
C  15.145562  9.823667  0.179048
C  0.021251  9.823667  0.219811
C  8.830644  10.553000  0.828827
C  15.145562  8.371221  0.230049
C  0.021251  8.371221  0.043050
C  7.582124  9.823667  0.860632
C  13.876357  7.631998  0.394501
C  -1.214289  7.631998  -0.057945
C  7.582124  8.371221  0.940282
C  13.876357  6.197900  0.399490
C  -1.214289  6.197900  -0.045890
C  6.330357  7.631998  0.893650
C  12.623562  5.453610  0.577347
C  -2.463372  5.453610  0.134720
C  6.330357  6.197900  0.884217
C  12.623562  4.000000  0.442137
C  -2.463372  4.000000  0.283211
C  7.582124  12.724286  0.390933
C  13.876357  10.553000  0.221769
C  -1.214289  10.553000  0.256098
C  6.330357  12.029000  0.519439
C  12.623562  9.823667  0.478309
C  -2.463372  9.823667  0.278087
C  6.330357  10.553000  0.695538
C  12.623562  8.371221  0.594553
C  -2.463372  8.371221  0.120755
C  5.067250  9.823667  0.492960
C  -3.721000  7.631998  0.162726
C  5.067250  8.371221  0.609962
C  -3.721000  6.197900  0.170174
C  5.067250  12.724286  0.253224
C  3.815571  12.029000  0.173202
C  3.815571  10.553000  0.241276
C  2.546438  12.724286  0.029228
C  1.302141  12.029000  0.119576
C  6.330357  3.272000  0.617543
C  15.145562  12.724286  -0.000018
C  0.021251  12.724286  0.113958
C  13.876357  12.029000  0.163418
C  -1.214289  12.029000  0.179995
C  12.623562  12.724286  0.229452
C  6.330357  1.797813  0.409739
C  8.830644  1.797813  0.405235
C  11.361143  1.797813  0.389111
C  10.098375  1.101000  0.232743
C  7.582124  1.101000  0.243628
C  5.067250  1.101000  0.140066
C  12.623562  1.101000  0.134174
