142
frame	753
H  17.693000  13.826000  0.000000
H  19.858000  12.564000  0.000000
H  21.106000  10.363000  0.000000
H  22.366000  5.656000  0.000000
H  22.367000  8.165000  0.000000
H  19.852000  1.261000  0.000000
H  17.690000  -0.000000  0.000000
H  21.104000  3.459000  0.000000
H  2.530000  -0.005000  0.000000
H  15.160000  -0.002000  0.000000
H  0.000000  -0.000000  0.000000
H  -2.163000  1.262000  0.000000
H  -3.415000  3.463000  0.000000
H  -4.677000  8.168000  0.000000
H  -4.678000  5.662000  0.000000
H  -2.159000  12.565000  0.000000
H  10.109000  13.837000  0.000000
H  7.585000  13.838000  0.000000
H  5.062000  13.833000  0.000000
H  2.535000  13.828000  0.000000
H  15.163000  13.830000  0.000000
H  0.007000  13.825000  0.000000
H  -3.412000  10.366000  0.000000
H  12.635000  13.835000  0.000000
H  10.108000  -0.010000  0.000000
H  7.583000  -0.012000  0.000000
H  5.058000  -0.011000  0.000000
H  12.631000  -0.009000  0.000000
C  16.391568  10.553000  0.381283
C  16.391568  12.029000  0.211415
C  17.670751  12.724286  0.123330
C  17.670751  8.371221  0.581503
C  17.670751  9.823667  0.395148
C  18.905140  10.553000  0.313935
C  18.905140  12.029000  0.214592
C  17.670751  4.000000  0.390706
C  17.670751  5.453610  0.575027
C  18.905140  6.197900  0.621684
C  18.905140  7.631998  0.638801
C  20.154752  8.371221  0.430789
C  20.154752  9.823667  0.335125
C  18.905140  3.272000  0.326386
C  20.154752  4.000000  0.350979
C  20.154752  5.453610  0.444653
C  21.411000  6.197900  0.306574
C  21.411000  7.631998  0.293574
C  17.670751  1.101000  0.114817
C  18.905140  1.797813  0.234089
C  5.067250  5.453610  0.112443
C  5.067250  4.000000  0.133816
C  3.815571  3.272000  0.335497
C  3.815571  1.797813  0.235612
C  11.361143  3.272000  0.019680
C  2.546438  1.101000  0.082932
C  3.815571  7.631998  0.292482
C  3.815571  6.197900  0.275336
C  11.361143  7.631998  0.220092
C  2.546438  5.453610  0.517985
C  11.361143  6.197900  0.214920
C  2.546438  4.000000  0.493739
C  10.098375  5.453610  0.350066
C  16.391568  3.272000  0.371603
C  1.302141  3.272000  0.371316
C  10.098375  4.000000  0.223356
C  16.391568  1.797813  0.195288
C  1.302141  1.797813  0.206969
C  8.830644  3.272000  0.150047
C  15.145562  1.101000  0.043594
C  0.021251  1.101000  0.107064
C  11.361143  12.029000  0.188328
C  2.546438  9.823667  0.545108
C  11.361143  10.553000  0.112754
C  2.546438  8.371221  0.549213
C  10.098375  9.823667  0.298854
C  16.391568  7.631998  0.584121
C  1.302141  7.631998  0.597395
C  10.098375  8.371221  0.382847
C  16.391568  6.197900  0.568115
C  1.302141  6.197900  0.571194
C  15.145562  5.453610  0.495476
C  0.021251  5.453610  0.555103
C  8.830644  7.631998  0.583820
C  8.830644  6.197900  0.554743
C  15.145562  4.000000  0.463255
C  0.021251  4.000000  0.358465
C  7.582124  5.453610  0.384556
C  13.876357  3.272000  0.306725
C  -1.214289  3.272000  0.292620
C  7.582124  4.000000  0.226787
C  13.876357  1.797813  0.218250
C  -1.214289  1.797813  0.217943
C  10.098375  12.724286  0.088570
C  1.302141  10.553000  0.405514
C  8.830644  12.029000  0.114674
C  15.145562  9.823667  0.485095
C  0.021251  9.823667  0.380750
C  8.830644  10.553000  0.252230
C  15.145562  8.371221  0.513989
C  0.021251  8.371221  0.578306
C  7.582124  9.823667  0.302178
C  13.876357  7.631998  0.260041
C  -1.214289  7.631998  0.604563
C  7.582124  8.371221  0.430365
C  13.876357  6.197900  0.250836
C  -1.214289  6.197900  0.594636
C  6.330357  7.631998  0.268358
C  12.623562  5.453610  0.068079
C  -2.463372  5.453610  0.380542
C  6.330357  6.197900  0.255352
C  12.623562  4.000000  0.098745
C  -2.463372  4.000000  0.282582
C  7.582124  12.724286  0.093020
C  13.876357  10.553000  0.355400
C  -1.214289  10.553000  0.296128
C  6.330357  12.029000  0.219782
C  12.623562  9.823667  0.153331
C  -2.463372  9.823667  0.283614
C  6.330357  10.553000  0.129181
C  12.623562  8.371221  0.092718
C  -2.463372  8.371221  0.375538
C  5.067250  9.823667  0.218413
C  -3.721000  7.631998  0.191663
C  5.067250  8.371221  0.136775
C  -3.721000  6.197900  0.182694
C  5.067250  12.724286  0.266376
C  3.815571  12.029000  0.325973
C  3.815571  10.553000  0.420571
C  2.546438  12.724286  0.147610
C  1.302141  12.029000  0.251420
C  6.330357  3.272000  0.042641
C  15.145562  12.724286  0.090442
C  0.021251  12.724286  0.125882
C  13.876357  12.029000  0.269149
C  -1.214289  12.029000  0.238668
C  12.623562  12.724286  0.211389
C  6.330357  1.797813  0.095342
C  8.830644  1.797813  -0.029243
C  11.361143  1.797813  0.103658
C  10.098375  1.101000  -0.050698
C  7.582124  1.101000  -0.058385
C  5.067250  1.101000  0.136216
C  12.623562  1.101000  0.150088
