142
frame	329
H  17.693000  13.826000  0.000000
H  19.858000  12.564000  0.000000
H  21.106000  10.363000  0.000000
H  22.366000  5.656000  0.000000
H  22.367000  8.165000  0.000000
H  19.852000  1.261000  0.000000
H  17.690000  -0.000000  0.000000
H  21.104000  3.459000  0.000000
H  2.530000  -0.005000  0.000000
H  15.160000  -0.002000  0.000000
H  0.000000  -0.000000  0.000000
H  -2.163000  1.262000  0.000000
H  -3.415000  3.463000  0.000000
H  -4.677000  8.168000  0.000000
H  -4.678000  5.662000  0.000000
H  -2.159000  12.565000  0.000000
H  10.109000  13.837000  0.000000
H  7.585000  13.838000  0.000000
H  5.062000  13.833000  0.000000
H  2.535000  13.828000  0.000000
H  15.163000  13.830000  0.000000
H  0.007000  13.825000  0.000000
H  -3.412000  10.366000  0.000000
H  12.635000  13.835000  0.000000
H  10.108000  -0.010000  0.000000
H  7.583000  -0.012000  0.000000
H  5.058000  -0.011000  0.000000
H  12.631000  -0.009000  0.000000
C  16.391568  10.553000  -0.250172
C  16.391568  12.029000  0.034588
C  17.670751  12.724286  0.161166
C  17.670751  8.371221  -0.543724
C  17.670751  9.823667  -0.383623
C  18.905140  10.553000  -0.110297
C  18.905140  12.029000  0.132070
C  17.670751  4.000000  -0.373681
C  17.670751  5.453610  -0.545611
C  18.905140  6.197900  -0.449237
C  18.905140  7.631998  -0.437361
C  20.154752  8.371221  -0.270015
C  20.154752  9.823667  -0.131538
C  18.905140  3.272000  -0.110574
C  20.154752  4.000000  -0.108210
C  20.154752  5.453610  -0.266291
C  21.411000  6.197900  -0.037790
C  21.411000  7.631998  -0.044899
C  17.670751  1.101000  0.163794
C  18.905140  1.797813  0.160493
C  5.067250  5.453610  -0.448128
C  5.067250  4.000000  -0.376492
C  3.815571  3.272000  -0.319641
C  3.815571  1.797813  -0.318589
C  11.361143  3.272000  -0.415529
C  2.546438  1.101000  -0.086251
C  3.815571  7.631998  -0.634122
C  3.815571  6.197900  -0.637278
C  11.361143  7.631998  -0.414458
C  2.546438  5.453610  -0.611845
C  11.361143  6.197900  -0.440386
C  2.546438  4.000000  -0.404023
C  10.098375  5.453610  -0.606074
C  16.391568  3.272000  -0.276642
C  1.302141  3.272000  -0.315172
C  10.098375  4.000000  -0.566098
C  16.391568  1.797813  0.014623
C  1.302141  1.797813  -0.009562
C  8.830644  3.272000  -0.462612
C  15.145562  1.101000  -0.088604
C  0.021251  1.101000  0.128259
C  11.361143  12.029000  -0.343056
C  2.546438  9.823667  -0.366012
C  11.361143  10.553000  -0.353492
C  2.546438  8.371221  -0.597469
C  10.098375  9.823667  -0.491292
C  16.391568  7.631998  -0.597173
C  1.302141  7.631998  -0.640338
C  10.098375  8.371221  -0.564259
C  16.391568  6.197900  -0.596102
C  1.302141  6.197900  -0.647616
C  15.145562  5.453610  -0.587296
C  0.021251  5.453610  -0.627099
C  8.830644  7.631998  -0.651153
C  8.830644  6.197900  -0.685678
C  15.145562  4.000000  -0.377158
C  0.021251  4.000000  -0.436013
C  7.582124  5.453610  -0.608742
C  13.876357  3.272000  -0.288821
C  -1.214289  3.272000  -0.152925
C  7.582124  4.000000  -0.564898
C  13.876357  1.797813  -0.313700
C  -1.214289  1.797813  0.095299
C  10.098375  12.724286  -0.124695
C  1.302141  10.553000  -0.275569
C  8.830644  12.029000  -0.212783
C  15.145562  9.823667  -0.336335
C  0.021251  9.823667  -0.417679
C  8.830644  10.553000  -0.386291
C  15.145562  8.371221  -0.563957
C  0.021251  8.371221  -0.612546
C  7.582124  9.823667  -0.492891
C  13.876357  7.631998  -0.591427
C  -1.214289  7.631998  -0.521955
C  7.582124  8.371221  -0.561904
C  13.876357  6.197900  -0.611683
C  -1.214289  6.197900  -0.527231
C  6.330357  7.631998  -0.403819
C  12.623562  5.453610  -0.432917
C  -2.463372  5.453610  -0.380201
C  6.330357  6.197900  -0.438767
C  12.623562  4.000000  -0.353447
C  -2.463372  4.000000  -0.187871
C  7.582124  12.724286  -0.124479
C  13.876357  10.553000  -0.244406
C  -1.214289  10.553000  -0.164619
C  6.330357  12.029000  -0.336950
C  12.623562  9.823667  -0.303896
C  -2.463372  9.823667  -0.208087
C  6.330357  10.553000  -0.347992
C  12.623562  8.371221  -0.401525
C  -2.463372  8.371221  -0.387664
C  5.067250  9.823667  -0.302544
C  -3.721000  7.631998  -0.173823
C  5.067250  8.371221  -0.404075
C  -3.721000  6.197900  -0.173757
C  5.067250  12.724286  -0.230923
C  3.815571  12.029000  -0.235514
C  3.815571  10.553000  -0.237245
C  2.546438  12.724286  -0.010019
C  1.302141  12.029000  0.039488
C  6.330357  3.272000  -0.434081
C  15.145562  12.724286  -0.050772
C  0.021251  12.724286  0.164142
C  13.876357  12.029000  -0.253769
C  -1.214289  12.029000  0.116648
C  12.623562  12.724286  -0.258698
C  6.330357  1.797813  -0.456684
C  8.830644  1.797813  -0.333491
C  11.361143  1.797813  -0.447694
C  10.098375  1.101000  -0.255604
C  7.582124  1.101000  -0.264385
C  5.067250  1.101000  -0.354659
C  12.623562  1.101000  -0.359334
