142
frame	890
H  17.693000  13.826000  0.000000
H  19.858000  12.564000  0.000000
H  21.106000  10.363000  0.000000
H  22.366000  5.656000  0.000000
H  22.367000  8.165000  0.000000
H  19.852000  1.261000  0.000000
H  17.690000  -0.000000  0.000000
H  21.104000  3.459000  0.000000
H  2.530000  -0.005000  0.000000
H  15.160000  -0.002000  0.000000
H  0.000000  -0.000000  0.000000
H  -2.163000  1.262000  0.000000
H  -3.415000  3.463000  0.000000
H  -4.677000  8.168000  0.000000
H  -4.678000  5.662000  0.000000
H  -2.159000  12.565000  0.000000
H  10.109000  13.837000  0.000000
H  7.585000  13.838000  0.000000
H  5.062000  13.833000  0.000000
H  2.535000  13.828000  0.000000
H  15.163000  13.830000  0.000000
H  0.007000  13.825000  0.000000
H  -3.412000  10.366000  0.000000
H  12.635000  13.835000  0.000000
H  10.108000  -0.010000  0.000000
H  7.583000  -0.012000  0.000000
H  5.058000  -0.011000  0.000000
H  12.631000  -0.009000  0.000000
C  16.391568  10.553000  0.315759
C  16.391568  12.029000  0.235184
C  17.670751  12.724286  0.137208
C  17.670751  8.371221  0.184238
C  17.670751  9.823667  0.055724
C  18.905140  10.553000  -0.059847
C  18.905140  12.029000  0.057381
C  17.670751  4.000000  0.049485
C  17.670751  5.453610  0.166605
C  18.905140  6.197900  0.173448
C  18.905140  7.631998  0.180359
C  20.154752  8.371221  0.027969
C  20.154752  9.823667  -0.031402
C  18.905140  3.272000  -0.067902
C  20.154752  4.000000  -0.018835
C  20.154752  5.453610  0.033602
C  21.411000  6.197900  0.011606
C  21.411000  7.631998  0.009379
C  17.670751  1.101000  0.117251
C  18.905140  1.797813  0.073101
C  5.067250  5.453610  0.516039
C  5.067250  4.000000  0.467988
C  3.815571  3.272000  0.540744
C  3.815571  1.797813  0.354179
C  11.361143  3.272000  0.498695
C  2.546438  1.101000  0.200491
C  3.815571  7.631998  0.301785
C  3.815571  6.197900  0.285659
C  11.361143  7.631998  0.851799
C  2.546438  5.453610  0.358747
C  11.361143  6.197900  0.834957
C  2.546438  4.000000  0.475293
C  10.098375  5.453610  0.946480
C  16.391568  3.272000  0.299705
C  1.302141  3.272000  0.322506
C  10.098375  4.000000  0.763582
C  16.391568  1.797813  0.218070
C  1.302141  1.797813  0.240948
C  8.830644  3.272000  0.657467
C  15.145562  1.101000  0.162846
C  0.021251  1.101000  0.130915
C  11.361143  12.029000  0.325499
C  2.546438  9.823667  0.517684
C  11.361143  10.553000  0.568172
C  2.546438  8.371221  0.375776
C  10.098375  9.823667  0.819616
C  16.391568  7.631998  0.220301
C  1.302141  7.631998  0.210187
C  10.098375  8.371221  0.977422
C  16.391568  6.197900  0.195921
C  1.302141  6.197900  0.206094
C  15.145562  5.453610  0.337433
C  0.021251  5.453610  0.154876
C  8.830644  7.631998  0.962582
C  8.830644  6.197900  0.937497
C  15.145562  4.000000  0.448654
C  0.021251  4.000000  0.037533
C  7.582124  5.453610  0.937611
C  13.876357  3.272000  0.514451
C  -1.214289  3.272000  -0.080303
C  7.582124  4.000000  0.754521
C  13.876357  1.797813  0.318496
C  -1.214289  1.797813  0.048462
C  10.098375  12.724286  0.190334
C  1.302141  10.553000  0.345889
C  8.830644  12.029000  0.329625
C  15.145562  9.823667  0.488137
C  0.021251  9.823667  0.046992
C  8.830644  10.553000  0.731883
C  15.145562  8.371221  0.369611
C  0.021251  8.371221  0.185666
C  7.582124  9.823667  0.825798
C  13.876357  7.631998  0.286845
C  -1.214289  7.631998  0.137879
C  7.582124  8.371221  0.984309
C  13.876357  6.197900  0.275701
C  -1.214289  6.197900  0.139705
C  6.330357  7.631998  0.862457
C  12.623562  5.453610  0.504668
C  -2.463372  5.453610  -0.028028
C  6.330357  6.197900  0.845790
C  12.623562  4.000000  0.446338
C  -2.463372  4.000000  -0.080726
C  7.582124  12.724286  0.211586
C  13.876357  10.553000  0.565729
C  -1.214289  10.553000  -0.095915
C  6.330357  12.029000  0.347459
C  12.623562  9.823667  0.507067
C  -2.463372  9.823667  -0.083192
C  6.330357  10.553000  0.569878
C  12.623562  8.371221  0.525703
C  -2.463372  8.371221  -0.020379
C  5.067250  9.823667  0.497976
C  -3.721000  7.631998  -0.085567
C  5.067250  8.371221  0.523632
C  -3.721000  6.197900  -0.079425
C  5.067250  12.724286  0.269459
C  3.815571  12.029000  0.436852
C  3.815571  10.553000  0.597459
C  2.546438  12.724286  0.260485
C  1.302141  12.029000  0.271061
C  6.330357  3.272000  0.492580
C  15.145562  12.724286  0.220467
C  0.021251  12.724286  0.154473
C  13.876357  12.029000  0.381045
C  -1.214289  12.029000  0.050054
C  12.623562  12.724286  0.234129
C  6.330357  1.797813  0.227793
C  8.830644  1.797813  0.214839
C  11.361143  1.797813  0.221535
C  10.098375  1.101000  0.049051
C  7.582124  1.101000  0.062775
C  5.067250  1.101000  0.149932
C  12.623562  1.101000  0.151514
