142
frame	544
H  17.693000  13.826000  0.000000
H  19.858000  12.564000  0.000000
H  21.106000  10.363000  0.000000
H  22.366000  5.656000  0.000000
H  22.367000  8.165000  0.000000
H  19.852000  1.261000  0.000000
H  17.690000  -0.000000  0.000000
H  21.104000  3.459000  0.000000
H  2.530000  -0.005000  0.000000
H  15.160000  -0.002000  0.000000
H  0.000000  -0.000000  0.000000
H  -2.163000  1.262000  0.000000
H  -3.415000  3.463000  0.000000
H  -4.677000  8.168000  0.000000
H  -4.678000  5.662000  0.000000
H  -2.159000  12.565000  0.000000
H  10.109000  13.837000  0.000000
H  7.585000  13.838000  0.000000
H  5.062000  13.833000  0.000000
H  2.535000  13.828000  0.000000
H  15.163000  13.830000  0.000000
H  0.007000  13.825000  0.000000
H  -3.412000  10.366000  0.000000
H  12.635000  13.835000  0.000000
H  10.108000  -0.010000  0.000000
H  7.583000  -0.012000  0.000000
H  5.058000  -0.011000  0.000000
H  12.631000  -0.009000  0.000000
C  16.391568  10.553000  0.047399
C  16.391568  12.029000  0.053226
C  17.670751  12.724286  0.078539
C  17.670751  8.371221  -0.193838
C  17.670751  9.823667  0.059826
C  18.905140  10.553000  0.193509
C  18.905140  12.029000  0.138743
C  17.670751  4.000000  0.052075
C  17.670751  5.453610  -0.187867
C  18.905140  6.197900  -0.227761
C  18.905140  7.631998  -0.222480
C  20.154752  8.371221  0.013741
C  20.154752  9.823667  0.183193
C  18.905140  3.272000  0.187363
C  20.154752  4.000000  0.192757
C  20.154752  5.453610  0.033019
C  21.411000  6.197900  0.193306
C  21.411000  7.631998  0.179088
C  17.670751  1.101000  0.066712
C  18.905140  1.797813  0.142319
C  5.067250  5.453610  -0.215015
C  5.067250  4.000000  -0.269989
C  3.815571  3.272000  -0.104012
C  3.815571  1.797813  -0.031426
C  11.361143  3.272000  -0.315584
C  2.546438  1.101000  -0.015071
C  3.815571  7.631998  -0.124131
C  3.815571  6.197900  -0.110056
C  11.361143  7.631998  -0.117516
C  2.546438  5.453610  -0.123237
C  11.361143  6.197900  -0.103326
C  2.546438  4.000000  -0.033682
C  10.098375  5.453610  -0.198095
C  16.391568  3.272000  0.026333
C  1.302141  3.272000  0.010745
C  10.098375  4.000000  -0.255772
C  16.391568  1.797813  0.037543
C  1.302141  1.797813  0.010931
C  8.830644  3.272000  -0.318594
C  15.145562  1.101000  -0.019574
C  0.021251  1.101000  0.054377
C  11.361143  12.029000  -0.079056
C  2.546438  9.823667  -0.008211
C  11.361143  10.553000  -0.257033
C  2.546438  8.371221  -0.120066
C  10.098375  9.823667  -0.209731
C  16.391568  7.631998  -0.205026
C  1.302141  7.631998  -0.216116
C  10.098375  8.371221  -0.183259
C  16.391568  6.197900  -0.203373
C  1.302141  6.197900  -0.223183
C  15.145562  5.453610  -0.101489
C  0.021251  5.453610  -0.205201
C  8.830644  7.631998  -0.209332
C  8.830644  6.197900  -0.217275
C  15.145562  4.000000  -0.012777
C  0.021251  4.000000  0.040062
C  7.582124  5.453610  -0.194518
C  13.876357  3.272000  -0.100078
C  -1.214289  3.272000  0.154814
C  7.582124  4.000000  -0.260648
C  13.876357  1.797813  -0.024429
C  -1.214289  1.797813  0.110222
C  10.098375  12.724286  -0.078761
C  1.302141  10.553000  0.041481
C  8.830644  12.029000  -0.103402
C  15.145562  9.823667  -0.001613
C  0.021251  9.823667  0.047670
C  8.830644  10.553000  -0.242942
C  15.145562  8.371221  -0.103668
C  0.021251  8.371221  -0.198394
C  7.582124  9.823667  -0.223810
C  13.876357  7.631998  -0.097016
C  -1.214289  7.631998  -0.258407
C  7.582124  8.371221  -0.169662
C  13.876357  6.197900  -0.094709
C  -1.214289  6.197900  -0.266772
C  6.330357  7.631998  -0.122443
C  12.623562  5.453610  -0.198296
C  -2.463372  5.453610  -0.058584
C  6.330357  6.197900  -0.130530
C  12.623562  4.000000  -0.262674
C  -2.463372  4.000000  0.137904
C  7.582124  12.724286  -0.059474
C  13.876357  10.553000  -0.057140
C  -1.214289  10.553000  0.139404
C  6.330357  12.029000  -0.073483
C  12.623562  9.823667  -0.231640
C  -2.463372  9.823667  0.120185
C  6.330357  10.553000  -0.265866
C  12.623562  8.371221  -0.184365
C  -2.463372  8.371221  -0.063147
C  5.067250  9.823667  -0.229646
C  -3.721000  7.631998  0.053633
C  5.067250  8.371221  -0.206186
C  -3.721000  6.197900  0.052008
C  5.067250  12.724286  0.039158
C  3.815571  12.029000  0.048197
C  3.815571  10.553000  -0.051034
C  2.546438  12.724286  0.058122
C  1.302141  12.029000  0.059177
C  6.330357  3.272000  -0.333275
C  15.145562  12.724286  0.040931
C  0.021251  12.724286  0.083574
C  13.876357  12.029000  0.030012
C  -1.214289  12.029000  0.118888
C  12.623562  12.724286  0.002249
C  6.330357  1.797813  -0.160233
C  8.830644  1.797813  -0.217829
C  11.361143  1.797813  -0.167646
C  10.098375  1.101000  -0.202466
C  7.582124  1.101000  -0.194364
C  5.067250  1.101000  -0.071596
C  12.623562  1.101000  -0.080226
