142
frame	925
H  17.693000  13.826000  0.000000
H  19.858000  12.564000  0.000000
H  21.106000  10.363000  0.000000
H  22.366000  5.656000  0.000000
H  22.367000  8.165000  0.000000
H  19.852000  1.261000  0.000000
H  17.690000  -0.000000  0.000000
H  21.104000  3.459000  0.000000
H  2.530000  -0.005000  0.000000
H  15.160000  -0.002000  0.000000
H  0.000000  -0.000000  0.000000
H  -2.163000  1.262000  0.000000
H  -3.415000  3.463000  0.000000
H  -4.677000  8.168000  0.000000
H  -4.678000  5.662000  0.000000
H  -2.159000  12.565000  0.000000
H  10.109000  13.837000  0.000000
H  7.585000  13.838000  0.000000
H  5.062000  13.833000  0.000000
H  2.535000  13.828000  0.000000
H  15.163000  13.830000  0.000000
H  0.007000  13.825000  0.000000
H  -3.412000  10.366000  0.000000
H  12.635000  13.835000  0.000000
H  10.108000  -0.010000  0.000000
H  7.583000  -0.012000  0.000000
H  5.058000  -0.011000  0.000000
H  12.631000  -0.009000  0.000000
C  16.391568  10.553000  0.231936
C  16.391568  12.029000  0.164014
C  17.670751  12.724286  0.071082
C  17.670751  8.371221  0.124259
C  17.670751  9.823667  0.264473
C  18.905140  10.553000  0.228381
C  18.905140  12.029000  0.101037
C  17.670751  4.000000  0.251231
C  17.670751  5.453610  0.132009
C  18.905140  6.197900  -0.033161
C  18.905140  7.631998  -0.027521
C  20.154752  8.371221  0.136940
C  20.154752  9.823667  0.181004
C  18.905140  3.272000  0.223242
C  20.154752  4.000000  0.182806
C  20.154752  5.453610  0.144988
C  21.411000  6.197900  0.205407
C  21.411000  7.631998  0.207978
C  17.670751  1.101000  0.067038
C  18.905140  1.797813  0.099254
C  5.067250  5.453610  0.534640
C  5.067250  4.000000  0.524572
C  3.815571  3.272000  0.333399
C  3.815571  1.797813  0.248590
C  11.361143  3.272000  0.580679
C  2.546438  1.101000  0.136650
C  3.815571  7.631998  0.396794
C  3.815571  6.197900  0.384981
C  11.361143  7.631998  0.699953
C  2.546438  5.453610  0.231807
C  11.361143  6.197900  0.687889
C  2.546438  4.000000  0.185427
C  10.098375  5.453610  0.969743
C  16.391568  3.272000  0.195971
C  1.302141  3.272000  0.206787
C  10.098375  4.000000  0.752012
C  16.391568  1.797813  0.131157
C  1.302141  1.797813  0.141388
C  8.830644  3.272000  0.648031
C  15.145562  1.101000  0.139430
C  0.021251  1.101000  0.080258
C  11.361143  12.029000  0.425477
C  2.546438  9.823667  0.191508
C  11.361143  10.553000  0.652566
C  2.546438  8.371221  0.235636
C  10.098375  9.823667  0.815948
C  16.391568  7.631998  0.128644
C  1.302141  7.631998  0.119759
C  10.098375  8.371221  0.984139
C  16.391568  6.197900  0.131740
C  1.302141  6.197900  0.124727
C  15.145562  5.453610  0.217361
C  0.021251  5.453610  0.109566
C  8.830644  7.631998  1.301524
C  8.830644  6.197900  1.298175
C  15.145562  4.000000  0.167300
C  0.021251  4.000000  0.243311
C  7.582124  5.453610  0.955128
C  13.876357  3.272000  0.330960
C  -1.214289  3.272000  0.225301
C  7.582124  4.000000  0.761613
C  13.876357  1.797813  0.224359
C  -1.214289  1.797813  0.100160
C  10.098375  12.724286  0.410263
C  1.302141  10.553000  0.226765
C  8.830644  12.029000  0.583495
C  15.145562  9.823667  0.188022
C  0.021251  9.823667  0.260346
C  8.830644  10.553000  0.735368
C  15.145562  8.371221  0.209605
C  0.021251  8.371221  0.098197
C  7.582124  9.823667  0.816304
C  13.876357  7.631998  0.388860
C  -1.214289  7.631998  -0.082734
C  7.582124  8.371221  0.969015
C  13.876357  6.197900  0.381956
C  -1.214289  6.197900  -0.068854
C  6.330357  7.631998  0.693015
C  12.623562  5.453610  0.523030
C  -2.463372  5.453610  0.068354
C  6.330357  6.197900  0.674097
C  12.623562  4.000000  0.522961
C  -2.463372  4.000000  0.136683
C  7.582124  12.724286  0.411970
C  13.876357  10.553000  0.377457
C  -1.214289  10.553000  0.230303
C  6.330357  12.029000  0.445048
C  12.623562  9.823667  0.565198
C  -2.463372  9.823667  0.124477
C  6.330357  10.553000  0.667451
C  12.623562  8.371221  0.539179
C  -2.463372  8.371221  0.057030
C  5.067250  9.823667  0.593878
C  -3.721000  7.631998  0.077751
C  5.067250  8.371221  0.561620
C  -3.721000  6.197900  0.082923
C  5.067250  12.724286  0.283627
C  3.815571  12.029000  0.327560
C  3.815571  10.553000  0.383121
C  2.546438  12.724286  0.219333
C  1.302141  12.029000  0.187385
C  6.330357  3.272000  0.595701
C  15.145562  12.724286  0.183728
C  0.021251  12.724286  0.102384
C  13.876357  12.029000  0.291086
C  -1.214289  12.029000  0.101843
C  12.623562  12.724286  0.261750
C  6.330357  1.797813  0.336268
C  8.830644  1.797813  0.462657
C  11.361143  1.797813  0.330788
C  10.098375  1.101000  0.279413
C  7.582124  1.101000  0.283977
C  5.067250  1.101000  0.176829
C  12.623562  1.101000  0.143176
