142
frame	802
H  17.693000  13.826000  0.000000
H  19.858000  12.564000  0.000000
H  21.106000  10.363000  0.000000
H  22.366000  5.656000  0.000000
H  22.367000  8.165000  0.000000
H  19.852000  1.261000  0.000000
H  17.690000  -0.000000  0.000000
H  21.104000  3.459000  0.000000
H  2.530000  -0.005000  0.000000
H  15.160000  -0.002000  0.000000
H  0.000000  -0.000000  0.000000
H  -2.163000  1.262000  0.000000
H  -3.415000  3.463000  0.000000
H  -4.677000  8.168000  0.000000
H  -4.678000  5.662000  0.000000
H  -2.159000  12.565000  0.000000
H  10.109000  13.837000  0.000000
H  7.585000  13.838000  0.000000
H  5.062000  13.833000  0.000000
H  2.535000  13.828000  0.000000
H  15.163000  13.830000  0.000000
H  0.007000  13.825000  0.000000
H  -3.412000  10.366000  0.000000
H  12.635000  13.835000  0.000000
H  10.108000  -0.010000  0.000000
H  7.583000  -0.012000  0.000000
H  5.058000  -0.011000  0.000000
H  12.631000  -0.009000  0.000000
C  16.391568  10.553000  0.255804
C  16.391568  12.029000  0.130970
C  17.670751  12.724286  0.021347
C  17.670751  8.371221  0.388064
C  17.670751  9.823667  0.163940
C  18.905140  10.553000  0.097444
C  18.905140  12.029000  0.048588
C  17.670751  4.000000  0.162003
C  17.670751  5.453610  0.406432
C  18.905140  6.197900  0.395856
C  18.905140  7.631998  0.403954
C  20.154752  8.371221  0.240457
C  20.154752  9.823667  0.162866
C  18.905140  3.272000  0.100082
C  20.154752  4.000000  0.175731
C  20.154752  5.453610  0.246599
C  21.411000  6.197900  0.232846
C  21.411000  7.631998  0.230869
C  17.670751  1.101000  0.000438
C  18.905140  1.797813  0.055951
C  5.067250  5.453610  0.686943
C  5.067250  4.000000  0.473860
C  3.815571  3.272000  0.324907
C  3.815571  1.797813  0.059605
C  11.361143  3.272000  0.275451
C  2.546438  1.101000  0.012810
C  3.815571  7.631998  0.685103
C  3.815571  6.197900  0.660403
C  11.361143  7.631998  0.626429
C  2.546438  5.453610  0.606060
C  11.361143  6.197900  0.606238
C  2.546438  4.000000  0.383474
C  10.098375  5.453610  0.361844
C  16.391568  3.272000  0.230925
C  1.302141  3.272000  0.234156
C  10.098375  4.000000  0.344589
C  16.391568  1.797813  0.111035
C  1.302141  1.797813  0.098996
C  8.830644  3.272000  0.278221
C  15.145562  1.101000  0.009215
C  0.021251  1.101000  -0.007650
C  11.361143  12.029000  0.206428
C  2.546438  9.823667  0.427320
C  11.361143  10.553000  0.349065
C  2.546438  8.371221  0.621902
C  10.098375  9.823667  0.403499
C  16.391568  7.631998  0.544040
C  1.302141  7.631998  0.567470
C  10.098375  8.371221  0.393195
C  16.391568  6.197900  0.539972
C  1.302141  6.197900  0.561456
C  15.145562  5.453610  0.581816
C  0.021251  5.453610  0.401240
C  8.830644  7.631998  0.266647
C  8.830644  6.197900  0.231393
C  15.145562  4.000000  0.379115
C  0.021251  4.000000  0.154980
C  7.582124  5.453610  0.373178
C  13.876357  3.272000  0.322791
C  -1.214289  3.272000  0.082390
C  7.582124  4.000000  0.344051
C  13.876357  1.797813  0.053401
C  -1.214289  1.797813  0.041347
C  10.098375  12.724286  0.143097
C  1.302141  10.553000  0.281321
C  8.830644  12.029000  0.252875
C  15.145562  9.823667  0.400982
C  0.021251  9.823667  0.169347
C  8.830644  10.553000  0.365041
C  15.145562  8.371221  0.585538
C  0.021251  8.371221  0.410205
C  7.582124  9.823667  0.422846
C  13.876357  7.631998  0.629609
C  -1.214289  7.631998  0.364872
C  7.582124  8.371221  0.416071
C  13.876357  6.197900  0.616318
C  -1.214289  6.197900  0.372135
C  6.330357  7.631998  0.655895
C  12.623562  5.453610  0.649945
C  -2.463372  5.453610  0.190334
C  6.330357  6.197900  0.633739
C  12.623562  4.000000  0.445536
C  -2.463372  4.000000  0.122128
C  7.582124  12.724286  0.169509
C  13.876357  10.553000  0.369267
C  -1.214289  10.553000  0.084946
C  6.330357  12.029000  0.253491
C  12.623562  9.823667  0.490737
C  -2.463372  9.823667  0.114037
C  6.330357  10.553000  0.385540
C  12.623562  8.371221  0.673840
C  -2.463372  8.371221  0.186140
C  5.067250  9.823667  0.539060
C  -3.721000  7.631998  0.131137
C  5.067250  8.371221  0.709860
C  -3.721000  6.197900  0.128071
C  5.067250  12.724286  0.130767
C  3.815571  12.029000  0.152882
C  3.815571  10.553000  0.388498
C  2.546438  12.724286  0.102837
C  1.302141  12.029000  0.171473
C  6.330357  3.272000  0.298357
C  15.145562  12.724286  0.058824
C  0.021251  12.724286  0.015743
C  13.876357  12.029000  0.136225
C  -1.214289  12.029000  0.057254
C  12.623562  12.724286  0.093937
C  6.330357  1.797813  0.133351
C  8.830644  1.797813  0.128968
C  11.361143  1.797813  0.081338
C  10.098375  1.101000  0.004235
C  7.582124  1.101000  0.017538
C  5.067250  1.101000  0.001732
C  12.623562  1.101000  -0.032077
