142
frame	196
H  17.693000  13.826000  0.000000
H  19.858000  12.564000  0.000000
H  21.106000  10.363000  0.000000
H  22.366000  5.656000  0.000000
H  22.367000  8.165000  0.000000
H  19.852000  1.261000  0.000000
H  17.690000  -0.000000  0.000000
H  21.104000  3.459000  0.000000
H  2.530000  -0.005000  0.000000
H  15.160000  -0.002000  0.000000
H  0.000000  -0.000000  0.000000
H  -2.163000  1.262000  0.000000
H  -3.415000  3.463000  0.000000
H  -4.677000  8.168000  0.000000
H  -4.678000  5.662000  0.000000
H  -2.159000  12.565000  0.000000
H  10.109000  13.837000  0.000000
H  7.585000  13.838000  0.000000
H  5.062000  13.833000  0.000000
H  2.535000  13.828000  0.000000
H  15.163000  13.830000  0.000000
H  0.007000  13.825000  0.000000
H  -3.412000  10.366000  0.000000
H  12.635000  13.835000  0.000000
H  10.108000  -0.010000  0.000000
H  7.583000  -0.012000  0.000000
H  5.058000  -0.011000  0.000000
H  12.631000  -0.009000  0.000000
C  16.391568  10.553000  -0.020436
C  16.391568  12.029000  -0.055792
C  17.670751  12.724286  -0.007630
C  17.670751  8.371221  0.118404
C  17.670751  9.823667  0.246508
C  18.905140  10.553000  0.288398
C  18.905140  12.029000  0.070503
C  17.670751  4.000000  0.249911
C  17.670751  5.453610  0.125034
C  18.905140  6.197900  0.157730
C  18.905140  7.631998  0.134616
C  20.154752  8.371221  0.348992
C  20.154752  9.823667  0.369169
C  18.905140  3.272000  0.286962
C  20.154752  4.000000  0.376297
C  20.154752  5.453610  0.365756
C  21.411000  6.197900  0.410919
C  21.411000  7.631998  0.414941
C  17.670751  1.101000  -0.009031
C  18.905140  1.797813  0.085876
C  5.067250  5.453610  -0.506165
C  5.067250  4.000000  -0.631424
C  3.815571  3.272000  -0.519238
C  3.815571  1.797813  -0.354344
C  11.361143  3.272000  -0.591976
C  2.546438  1.101000  -0.147834
C  3.815571  7.631998  -0.275599
C  3.815571  6.197900  -0.294771
C  11.361143  7.631998  -0.559114
C  2.546438  5.453610  -0.288886
C  11.361143  6.197900  -0.581224
C  2.546438  4.000000  -0.356949
C  10.098375  5.453610  -0.688681
C  16.391568  3.272000  -0.039436
C  1.302141  3.272000  -0.039057
C  10.098375  4.000000  -0.646482
C  16.391568  1.797813  -0.069852
C  1.302141  1.797813  -0.080404
C  8.830644  3.272000  -0.588423
C  15.145562  1.101000  -0.154939
C  0.021251  1.101000  -0.028510
C  11.361143  12.029000  -0.385964
C  2.546438  9.823667  -0.322548
C  11.361143  10.553000  -0.533963
C  2.546438  8.371221  -0.264691
C  10.098375  9.823667  -0.583151
C  16.391568  7.631998  -0.100776
C  1.302141  7.631998  -0.115177
C  10.098375  8.371221  -0.653357
C  16.391568  6.197900  -0.110008
C  1.302141  6.197900  -0.110241
C  15.145562  5.453610  -0.278405
C  0.021251  5.453610  0.109399
C  8.830644  7.631998  -0.719641
C  8.830644  6.197900  -0.735901
C  15.145562  4.000000  -0.350991
C  0.021251  4.000000  0.227202
C  7.582124  5.453610  -0.691109
C  13.876357  3.272000  -0.509430
C  -1.214289  3.272000  0.244689
C  7.582124  4.000000  -0.646900
C  13.876357  1.797813  -0.355853
C  -1.214289  1.797813  0.051650
C  10.098375  12.724286  -0.155476
C  1.302141  10.553000  -0.002006
C  8.830644  12.029000  -0.364017
C  15.145562  9.823667  -0.323384
C  0.021251  9.823667  0.241829
C  8.830644  10.553000  -0.513534
C  15.145562  8.371221  -0.265123
C  0.021251  8.371221  0.105640
C  7.582124  9.823667  -0.573606
C  13.876357  7.631998  -0.275872
C  -1.214289  7.631998  0.102973
C  7.582124  8.371221  -0.658103
C  13.876357  6.197900  -0.299835
C  -1.214289  6.197900  0.099980
C  6.330357  7.631998  -0.553452
C  12.623562  5.453610  -0.509915
C  -2.463372  5.453610  0.293682
C  6.330357  6.197900  -0.582413
C  12.623562  4.000000  -0.630978
C  -2.463372  4.000000  0.315959
C  7.582124  12.724286  -0.138435
C  13.876357  10.553000  -0.487829
C  -1.214289  10.553000  0.240957
C  6.330357  12.029000  -0.360134
C  12.623562  9.823667  -0.583429
C  -2.463372  9.823667  0.305698
C  6.330357  10.553000  -0.518783
C  12.623562  8.371221  -0.477454
C  -2.463372  8.371221  0.295043
C  5.067250  9.823667  -0.570694
C  -3.721000  7.631998  0.308723
C  5.067250  8.371221  -0.478701
C  -3.721000  6.197900  0.315045
C  5.067250  12.724286  -0.157950
C  3.815571  12.029000  -0.271154
C  3.815571  10.553000  -0.452028
C  2.546438  12.724286  -0.080030
C  1.302141  12.029000  -0.029288
C  6.330357  3.272000  -0.587902
C  15.145562  12.724286  -0.119271
C  0.021251  12.724286  0.012708
C  13.876357  12.029000  -0.297056
C  -1.214289  12.029000  0.067960
C  12.623562  12.724286  -0.189747
C  6.330357  1.797813  -0.470671
C  8.830644  1.797813  -0.486042
C  11.361143  1.797813  -0.483404
C  10.098375  1.101000  -0.281235
C  7.582124  1.101000  -0.281349
C  5.067250  1.101000  -0.275644
C  12.623562  1.101000  -0.281985
