142
frame	891
H  17.693000  13.826000  0.000000
H  19.858000  12.564000  0.000000
H  21.106000  10.363000  0.000000
H  22.366000  5.656000  0.000000
H  22.367000  8.165000  0.000000
H  19.852000  1.261000  0.000000
H  17.690000  -0.000000  0.000000
H  21.104000  3.459000  0.000000
H  2.530000  -0.005000  0.000000
H  15.160000  -0.002000  0.000000
H  0.000000  -0.000000  0.000000
H  -2.163000  1.262000  0.000000
H  -3.415000  3.463000  0.000000
H  -4.677000  8.168000  0.000000
H  -4.678000  5.662000  0.000000
H  -2.159000  12.565000  0.000000
H  10.109000  13.837000  0.000000
H  7.585000  13.838000  0.000000
H  5.062000  13.833000  0.000000
H  2.535000  13.828000  0.000000
H  15.163000  13.830000  0.000000
H  0.007000  13.825000  0.000000
H  -3.412000  10.366000  0.000000
H  12.635000  13.835000  0.000000
H  10.108000  -0.010000  0.000000
H  7.583000  -0.012000  0.000000
H  5.058000  -0.011000  0.000000
H  12.631000  -0.009000  0.000000
C  16.391568  10.553000  0.312939
C  16.391568  12.029000  0.237275
C  17.670751  12.724286  0.135178
C  17.670751  8.371221  0.183194
C  17.670751  9.823667  0.054749
C  18.905140  10.553000  -0.055794
C  18.905140  12.029000  0.062392
C  17.670751  4.000000  0.048544
C  17.670751  5.453610  0.164607
C  18.905140  6.197900  0.182555
C  18.905140  7.631998  0.188480
C  20.154752  8.371221  0.022993
C  20.154752  9.823667  -0.033529
C  18.905140  3.272000  -0.063915
C  20.154752  4.000000  -0.019989
C  20.154752  5.453610  0.027677
C  21.411000  6.197900  0.011514
C  21.411000  7.631998  0.007312
C  17.670751  1.101000  0.113319
C  18.905140  1.797813  0.077187
C  5.067250  5.453610  0.513162
C  5.067250  4.000000  0.468217
C  3.815571  3.272000  0.543779
C  3.815571  1.797813  0.355045
C  11.361143  3.272000  0.496686
C  2.546438  1.101000  0.202261
C  3.815571  7.631998  0.299875
C  3.815571  6.197900  0.283674
C  11.361143  7.631998  0.843783
C  2.546438  5.453610  0.354697
C  11.361143  6.197900  0.827982
C  2.546438  4.000000  0.473072
C  10.098375  5.453610  0.954444
C  16.391568  3.272000  0.298790
C  1.302141  3.272000  0.320295
C  10.098375  4.000000  0.761644
C  16.391568  1.797813  0.221168
C  1.302141  1.797813  0.242923
C  8.830644  3.272000  0.666414
C  15.145562  1.101000  0.164050
C  0.021251  1.101000  0.128893
C  11.361143  12.029000  0.327430
C  2.546438  9.823667  0.515601
C  11.361143  10.553000  0.567138
C  2.546438  8.371221  0.369821
C  10.098375  9.823667  0.817727
C  16.391568  7.631998  0.213261
C  1.302141  7.631998  0.204181
C  10.098375  8.371221  0.983473
C  16.391568  6.197900  0.190935
C  1.302141  6.197900  0.201118
C  15.145562  5.453610  0.333417
C  0.021251  5.453610  0.152911
C  8.830644  7.631998  0.979582
C  8.830644  6.197900  0.956509
C  15.145562  4.000000  0.447719
C  0.021251  4.000000  0.036465
C  7.582124  5.453610  0.945585
C  13.876357  3.272000  0.516340
C  -1.214289  3.272000  -0.076282
C  7.582124  4.000000  0.751424
C  13.876357  1.797813  0.320620
C  -1.214289  1.797813  0.055478
C  10.098375  12.724286  0.195325
C  1.302141  10.553000  0.342762
C  8.830644  12.029000  0.336652
C  15.145562  9.823667  0.486279
C  0.021251  9.823667  0.043915
C  8.830644  10.553000  0.740812
C  15.145562  8.371221  0.365676
C  0.021251  8.371221  0.183647
C  7.582124  9.823667  0.823773
C  13.876357  7.631998  0.282779
C  -1.214289  7.631998  0.145761
C  7.582124  8.371221  0.992301
C  13.876357  6.197900  0.272603
C  -1.214289  6.197900  0.147608
C  6.330357  7.631998  0.854451
C  12.623562  5.453610  0.503699
C  -2.463372  5.453610  -0.032047
C  6.330357  6.197900  0.837737
C  12.623562  4.000000  0.446191
C  -2.463372  4.000000  -0.081631
C  7.582124  12.724286  0.215727
C  13.876357  10.553000  0.566736
C  -1.214289  10.553000  -0.091852
C  6.330357  12.029000  0.349571
C  12.623562  9.823667  0.506941
C  -2.463372  9.823667  -0.084978
C  6.330357  10.553000  0.568923
C  12.623562  8.371221  0.523673
C  -2.463372  8.371221  -0.025389
C  5.067250  9.823667  0.498236
C  -3.721000  7.631998  -0.087531
C  5.067250  8.371221  0.520581
C  -3.721000  6.197900  -0.081424
C  5.067250  12.724286  0.268517
C  3.815571  12.029000  0.436726
C  3.815571  10.553000  0.600557
C  2.546438  12.724286  0.262234
C  1.302141  12.029000  0.273005
C  6.330357  3.272000  0.490628
C  15.145562  12.724286  0.222694
C  0.021251  12.724286  0.151410
C  13.876357  12.029000  0.383167
C  -1.214289  12.029000  0.057074
C  12.623562  12.724286  0.233106
C  6.330357  1.797813  0.229928
C  8.830644  1.797813  0.221814
C  11.361143  1.797813  0.222432
C  10.098375  1.101000  0.054917
C  7.582124  1.101000  0.067798
C  5.067250  1.101000  0.149046
C  12.623562  1.101000  0.151469
