142
frame	416
H  17.693000  13.826000  0.000000
H  19.858000  12.564000  0.000000
H  21.106000  10.363000  0.000000
H  22.366000  5.656000  0.000000
H  22.367000  8.165000  0.000000
H  19.852000  1.261000  0.000000
H  17.690000  -0.000000  0.000000
H  21.104000  3.459000  0.000000
H  2.530000  -0.005000  0.000000
H  15.160000  -0.002000  0.000000
H  0.000000  -0.000000  0.000000
H  -2.163000  1.262000  0.000000
H  -3.415000  3.463000  0.000000
H  -4.677000  8.168000  0.000000
H  -4.678000  5.662000  0.000000
H  -2.159000  12.565000  0.000000
H  10.109000  13.837000  0.000000
H  7.585000  13.838000  0.000000
H  5.062000  13.833000  0.000000
H  2.535000  13.828000  0.000000
H  15.163000  13.830000  0.000000
H  0.007000  13.825000  0.000000
H  -3.412000  10.366000  0.000000
H  12.635000  13.835000  0.000000
H  10.108000  -0.010000  0.000000
H  7.583000  -0.012000  0.000000
H  5.058000  -0.011000  0.000000
H  12.631000  -0.009000  0.000000
C  16.391568  10.553000  -0.576799
C  16.391568  12.029000  -0.303256
C  17.670751  12.724286  -0.119049
C  17.670751  8.371221  -0.416593
C  17.670751  9.823667  -0.460665
C  18.905140  10.553000  -0.306518
C  18.905140  12.029000  -0.155502
C  17.670751  4.000000  -0.455794
C  17.670751  5.453610  -0.396788
C  18.905140  6.197900  -0.240812
C  18.905140  7.631998  -0.253874
C  20.154752  8.371221  -0.084267
C  20.154752  9.823667  -0.127758
C  18.905140  3.272000  -0.313326
C  20.154752  4.000000  -0.116153
C  20.154752  5.453610  -0.067737
C  21.411000  6.197900  0.173077
C  21.411000  7.631998  0.172958
C  17.670751  1.101000  -0.127098
C  18.905140  1.797813  -0.138716
C  5.067250  5.453610  -0.313098
C  5.067250  4.000000  -0.234004
C  3.815571  3.272000  -0.496622
C  3.815571  1.797813  -0.455420
C  11.361143  3.272000  -0.188474
C  2.546438  1.101000  -0.269955
C  3.815571  7.631998  -0.491999
C  3.815571  6.197900  -0.503091
C  11.361143  7.631998  -0.348139
C  2.546438  5.453610  -0.741940
C  11.361143  6.197900  -0.373377
C  2.546438  4.000000  -0.716729
C  10.098375  5.453610  -0.354602
C  16.391568  3.272000  -0.612076
C  1.302141  3.272000  -0.638632
C  10.098375  4.000000  -0.261271
C  16.391568  1.797813  -0.335908
C  1.302141  1.797813  -0.362313
C  8.830644  3.272000  -0.241656
C  15.145562  1.101000  -0.267019
C  0.021251  1.101000  -0.148101
C  11.361143  12.029000  -0.171744
C  2.546438  9.823667  -0.688898
C  11.361143  10.553000  -0.111367
C  2.546438  8.371221  -0.726190
C  10.098375  9.823667  -0.195551
C  16.391568  7.631998  -0.528440
C  1.302141  7.631998  -0.584853
C  10.098375  8.371221  -0.311688
C  16.391568  6.197900  -0.534333
C  1.302141  6.197900  -0.585983
C  15.145562  5.453610  -0.690370
C  0.021251  5.453610  -0.472503
C  8.830644  7.631998  -0.335217
C  8.830644  6.197900  -0.359757
C  15.145562  4.000000  -0.658530
C  0.021251  4.000000  -0.509565
C  7.582124  5.453610  -0.343731
C  13.876357  3.272000  -0.460935
C  -1.214289  3.272000  -0.364673
C  7.582124  4.000000  -0.250086
C  13.876357  1.797813  -0.459381
C  -1.214289  1.797813  -0.187603
C  10.098375  12.724286  0.074326
C  1.302141  10.553000  -0.611190
C  8.830644  12.029000  0.050483
C  15.145562  9.823667  -0.644924
C  0.021251  9.823667  -0.491070
C  8.830644  10.553000  -0.163038
C  15.145562  8.371221  -0.665657
C  0.021251  8.371221  -0.475514
C  7.582124  9.823667  -0.186861
C  13.876357  7.631998  -0.448486
C  -1.214289  7.631998  -0.335102
C  7.582124  8.371221  -0.305979
C  13.876357  6.197900  -0.459515
C  -1.214289  6.197900  -0.329185
C  6.330357  7.631998  -0.362081
C  12.623562  5.453610  -0.291687
C  -2.463372  5.453610  -0.175019
C  6.330357  6.197900  -0.378180
C  12.623562  4.000000  -0.217819
C  -2.463372  4.000000  -0.190379
C  7.582124  12.724286  0.073408
C  13.876357  10.553000  -0.433665
C  -1.214289  10.553000  -0.366936
C  6.330357  12.029000  -0.160408
C  12.623562  9.823667  -0.175196
C  -2.463372  9.823667  -0.196566
C  6.330357  10.553000  -0.105864
C  12.623562  8.371221  -0.256919
C  -2.463372  8.371221  -0.187167
C  5.067250  9.823667  -0.190545
C  -3.721000  7.631998  0.058796
C  5.067250  8.371221  -0.280759
C  -3.721000  6.197900  0.058052
C  5.067250  12.724286  -0.285964
C  3.815571  12.029000  -0.383191
C  3.815571  10.553000  -0.430310
C  2.546438  12.724286  -0.202094
C  1.302141  12.029000  -0.313607
C  6.330357  3.272000  -0.183711
C  15.145562  12.724286  -0.212391
C  0.021251  12.724286  -0.113989
C  13.876357  12.029000  -0.398517
C  -1.214289  12.029000  -0.180193
C  12.623562  12.724286  -0.321361
C  6.330357  1.797813  -0.278906
C  8.830644  1.797813  -0.072459
C  11.361143  1.797813  -0.285451
C  10.098375  1.101000  -0.078252
C  7.582124  1.101000  -0.066820
C  5.067250  1.101000  -0.416312
C  12.623562  1.101000  -0.417094
