142
frame	519
H  17.693000  13.826000  0.000000
H  19.858000  12.564000  0.000000
H  21.106000  10.363000  0.000000
H  22.366000  5.656000  0.000000
H  22.367000  8.165000  0.000000
H  19.852000  1.261000  0.000000
H  17.690000  -0.000000  0.000000
H  21.104000  3.459000  0.000000
H  2.530000  -0.005000  0.000000
H  15.160000  -0.002000  0.000000
H  0.000000  -0.000000  0.000000
H  -2.163000  1.262000  0.000000
H  -3.415000  3.463000  0.000000
H  -4.677000  8.168000  0.000000
H  -4.678000  5.662000  0.000000
H  -2.159000  12.565000  0.000000
H  10.109000  13.837000  0.000000
H  7.585000  13.838000  0.000000
H  5.062000  13.833000  0.000000
H  2.535000  13.828000  0.000000
H  15.163000  13.830000  0.000000
H  0.007000  13.825000  0.000000
H  -3.412000  10.366000  0.000000
H  12.635000  13.835000  0.000000
H  10.108000  -0.010000  0.000000
H  7.583000  -0.012000  0.000000
H  5.058000  -0.011000  0.000000
H  12.631000  -0.009000  0.000000
C  16.391568  10.553000  0.094408
C  16.391568  12.029000  0.098503
C  17.670751  12.724286  0.054001
C  17.670751  8.371221  -0.114698
C  17.670751  9.823667  -0.074609
C  18.905140  10.553000  -0.101261
C  18.905140  12.029000  0.015117
C  17.670751  4.000000  -0.080333
C  17.670751  5.453610  -0.122047
C  18.905140  6.197900  -0.035029
C  18.905140  7.631998  -0.039873
C  20.154752  8.371221  -0.018670
C  20.154752  9.823667  -0.099810
C  18.905140  3.272000  -0.091314
C  20.154752  4.000000  -0.073489
C  20.154752  5.453610  -0.004748
C  21.411000  6.197900  0.077391
C  21.411000  7.631998  0.076026
C  17.670751  1.101000  0.032865
C  18.905140  1.797813  0.003147
C  5.067250  5.453610  -0.420427
C  5.067250  4.000000  -0.349838
C  3.815571  3.272000  -0.215827
C  3.815571  1.797813  -0.088772
C  11.361143  3.272000  -0.174636
C  2.546438  1.101000  -0.017624
C  3.815571  7.631998  -0.551732
C  3.815571  6.197900  -0.572883
C  11.361143  7.631998  -0.173291
C  2.546438  5.453610  -0.352306
C  11.361143  6.197900  -0.188600
C  2.546438  4.000000  -0.111164
C  10.098375  5.453610  -0.111483
C  16.391568  3.272000  0.085219
C  1.302141  3.272000  0.076827
C  10.098375  4.000000  -0.104527
C  16.391568  1.797813  0.066092
C  1.302141  1.797813  0.064924
C  8.830644  3.272000  -0.164280
C  15.145562  1.101000  -0.004097
C  0.021251  1.101000  0.026095
C  11.361143  12.029000  -0.048023
C  2.546438  9.823667  -0.081139
C  11.361143  10.553000  -0.110429
C  2.546438  8.371221  -0.342588
C  10.098375  9.823667  -0.066964
C  16.391568  7.631998  -0.300854
C  1.302141  7.631998  -0.318434
C  10.098375  8.371221  -0.109564
C  16.391568  6.197900  -0.305761
C  1.302141  6.197900  -0.323428
C  15.145562  5.453610  -0.337760
C  0.021251  5.453610  -0.157436
C  8.830644  7.631998  -0.143667
C  8.830644  6.197900  -0.140979
C  15.145562  4.000000  -0.110057
C  0.021251  4.000000  -0.113540
C  7.582124  5.453610  -0.134876
C  13.876357  3.272000  -0.207723
C  -1.214289  3.272000  -0.128591
C  7.582124  4.000000  -0.126047
C  13.876357  1.797813  -0.097585
C  -1.214289  1.797813  -0.010971
C  10.098375  12.724286  -0.095309
C  1.302141  10.553000  0.092444
C  8.830644  12.029000  -0.217182
C  15.145562  9.823667  -0.091940
C  0.021251  9.823667  -0.104801
C  8.830644  10.553000  -0.096037
C  15.145562  8.371221  -0.329052
C  0.021251  8.371221  -0.149964
C  7.582124  9.823667  -0.073790
C  13.876357  7.631998  -0.527803
C  -1.214289  7.631998  -0.100982
C  7.582124  8.371221  -0.129085
C  13.876357  6.197900  -0.533682
C  -1.214289  6.197900  -0.091241
C  6.330357  7.631998  -0.192705
C  12.623562  5.453610  -0.386415
C  -2.463372  5.453610  -0.095627
C  6.330357  6.197900  -0.195248
C  12.623562  4.000000  -0.324106
C  -2.463372  4.000000  -0.154138
C  7.582124  12.724286  -0.082029
C  13.876357  10.553000  -0.164232
C  -1.214289  10.553000  -0.126638
C  6.330357  12.029000  -0.027960
C  12.623562  9.823667  -0.276552
C  -2.463372  9.823667  -0.165323
C  6.330357  10.553000  -0.132777
C  12.623562  8.371221  -0.379345
C  -2.463372  8.371221  -0.099383
C  5.067250  9.823667  -0.309362
C  -3.721000  7.631998  -0.055793
C  5.067250  8.371221  -0.408205
C  -3.721000  6.197900  -0.044521
C  5.067250  12.724286  0.066134
C  3.815571  12.029000  -0.006437
C  3.815571  10.553000  -0.164284
C  2.546438  12.724286  0.053915
C  1.302141  12.029000  0.097568
C  6.330357  3.272000  -0.183418
C  15.145562  12.724286  0.019681
C  0.021251  12.724286  0.046307
C  13.876357  12.029000  -0.036773
C  -1.214289  12.029000  -0.017889
C  12.623562  12.724286  0.040218
C  6.330357  1.797813  -0.139936
C  8.830644  1.797813  -0.332818
C  11.361143  1.797813  -0.139377
C  10.098375  1.101000  -0.219790
C  7.582124  1.101000  -0.218066
C  5.067250  1.101000  -0.042854
C  12.623562  1.101000  -0.052979
