142
frame	388
H  17.693000  13.826000  0.000000
H  19.858000  12.564000  0.000000
H  21.106000  10.363000  0.000000
H  22.366000  5.656000  0.000000
H  22.367000  8.165000  0.000000
H  19.852000  1.261000  0.000000
H  17.690000  -0.000000  0.000000
H  21.104000  3.459000  0.000000
H  2.530000  -0.005000  0.000000
H  15.160000  -0.002000  0.000000
H  0.000000  -0.000000  0.000000
H  -2.163000  1.262000  0.000000
H  -3.415000  3.463000  0.000000
H  -4.677000  8.168000  0.000000
H  -4.678000  5.662000  0.000000
H  -2.159000  12.565000  0.000000
H  10.109000  13.837000  0.000000
H  7.585000  13.838000  0.000000
H  5.062000  13.833000  0.000000
H  2.535000  13.828000  0.000000
H  15.163000  13.830000  0.000000
H  0.007000  13.825000  0.000000
H  -3.412000  10.366000  0.000000
H  12.635000  13.835000  0.000000
H  10.108000  -0.010000  0.000000
H  7.583000  -0.012000  0.000000
H  5.058000  -0.011000  0.000000
H  12.631000  -0.009000  0.000000
C  16.391568  10.553000  -0.481046
C  16.391568  12.029000  -0.341119
C  17.670751  12.724286  -0.177434
C  17.670751  8.371221  -0.516018
C  17.670751  9.823667  -0.563135
C  18.905140  10.553000  -0.315946
C  18.905140  12.029000  -0.117163
C  17.670751  4.000000  -0.575373
C  17.670751  5.453610  -0.528221
C  18.905140  6.197900  -0.363326
C  18.905140  7.631998  -0.348228
C  20.154752  8.371221  -0.228977
C  20.154752  9.823667  -0.139487
C  18.905140  3.272000  -0.299905
C  20.154752  4.000000  -0.120691
C  20.154752  5.453610  -0.219107
C  21.411000  6.197900  -0.077730
C  21.411000  7.631998  -0.081904
C  17.670751  1.101000  -0.190281
C  18.905140  1.797813  -0.116406
C  5.067250  5.453610  -0.569703
C  5.067250  4.000000  -0.503963
C  3.815571  3.272000  -0.414133
C  3.815571  1.797813  -0.235597
C  11.361143  3.272000  -0.501708
C  2.546438  1.101000  -0.245821
C  3.815571  7.631998  -0.632050
C  3.815571  6.197900  -0.642894
C  11.361143  7.631998  -0.262993
C  2.546438  5.453610  -0.510688
C  11.361143  6.197900  -0.269099
C  2.546438  4.000000  -0.449099
C  10.098375  5.453610  -0.277917
C  16.391568  3.272000  -0.490953
C  1.302141  3.272000  -0.557602
C  10.098375  4.000000  -0.334160
C  16.391568  1.797813  -0.371803
C  1.302141  1.797813  -0.388492
C  8.830644  3.272000  -0.348668
C  15.145562  1.101000  -0.231430
C  0.021251  1.101000  -0.209474
C  11.361143  12.029000  -0.237681
C  2.546438  9.823667  -0.405124
C  11.361143  10.553000  -0.412736
C  2.546438  8.371221  -0.497890
C  10.098375  9.823667  -0.265934
C  16.391568  7.631998  -0.516883
C  1.302141  7.631998  -0.563309
C  10.098375  8.371221  -0.244407
C  16.391568  6.197900  -0.508134
C  1.302141  6.197900  -0.577412
C  15.145562  5.453610  -0.468323
C  0.021251  5.453610  -0.601473
C  8.830644  7.631998  -0.191730
C  8.830644  6.197900  -0.194748
C  15.145562  4.000000  -0.409352
C  0.021251  4.000000  -0.651697
C  7.582124  5.453610  -0.287902
C  13.876357  3.272000  -0.388352
C  -1.214289  3.272000  -0.367855
C  7.582124  4.000000  -0.319147
C  13.876357  1.797813  -0.199062
C  -1.214289  1.797813  -0.152733
C  10.098375  12.724286  -0.199050
C  1.302141  10.553000  -0.529232
C  8.830644  12.029000  -0.242866
C  15.145562  9.823667  -0.381416
C  0.021251  9.823667  -0.640230
C  8.830644  10.553000  -0.246328
C  15.145562  8.371221  -0.467752
C  0.021251  8.371221  -0.587411
C  7.582124  9.823667  -0.267768
C  13.876357  7.631998  -0.604869
C  -1.214289  7.631998  -0.430162
C  7.582124  8.371221  -0.264058
C  13.876357  6.197900  -0.606732
C  -1.214289  6.197900  -0.436162
C  6.330357  7.631998  -0.281037
C  12.623562  5.453610  -0.548196
C  -2.463372  5.453610  -0.310176
C  6.330357  6.197900  -0.286454
C  12.623562  4.000000  -0.489499
C  -2.463372  4.000000  -0.203825
C  7.582124  12.724286  -0.170400
C  13.876357  10.553000  -0.326366
C  -1.214289  10.553000  -0.364461
C  6.330357  12.029000  -0.208225
C  12.623562  9.823667  -0.442667
C  -2.463372  9.823667  -0.218874
C  6.330357  10.553000  -0.402733
C  12.623562  8.371221  -0.527159
C  -2.463372  8.371221  -0.305125
C  5.067250  9.823667  -0.437372
C  -3.721000  7.631998  -0.208308
C  5.067250  8.371221  -0.543192
C  -3.721000  6.197900  -0.199092
C  5.067250  12.724286  -0.027839
C  3.815571  12.029000  -0.142026
C  3.815571  10.553000  -0.347990
C  2.546438  12.724286  -0.174949
C  1.302141  12.029000  -0.353522
C  6.330357  3.272000  -0.486845
C  15.145562  12.724286  -0.190583
C  0.021251  12.724286  -0.181739
C  13.876357  12.029000  -0.143881
C  -1.214289  12.029000  -0.138747
C  12.623562  12.724286  -0.047523
C  6.330357  1.797813  -0.326979
C  8.830644  1.797813  -0.381510
C  11.361143  1.797813  -0.339206
C  10.098375  1.101000  -0.335884
C  7.582124  1.101000  -0.329516
C  5.067250  1.101000  -0.140811
C  12.623562  1.101000  -0.144404
