142
frame	314
H  17.693000  13.826000  0.000000
H  19.858000  12.564000  0.000000
H  21.106000  10.363000  0.000000
H  22.366000  5.656000  0.000000
H  22.367000  8.165000  0.000000
H  19.852000  1.261000  0.000000
H  17.690000  -0.000000  0.000000
H  21.104000  3.459000  0.000000
H  2.530000  -0.005000  0.000000
H  15.160000  -0.002000  0.000000
H  0.000000  -0.000000  0.000000
H  -2.163000  1.262000  0.000000
H  -3.415000  3.463000  0.000000
H  -4.677000  8.168000  0.000000
H  -4.678000  5.662000  0.000000
H  -2.159000  12.565000  0.000000
H  10.109000  13.837000  0.000000
H  7.585000  13.838000  0.000000
H  5.062000  13.833000  0.000000
H  2.535000  13.828000  0.000000
H  15.163000  13.830000  0.000000
H  0.007000  13.825000  0.000000
H  -3.412000  10.366000  0.000000
H  12.635000  13.835000  0.000000
H  10.108000  -0.010000  0.000000
H  7.583000  -0.012000  0.000000
H  5.058000  -0.011000  0.000000
H  12.631000  -0.009000  0.000000
C  16.391568  10.553000  -0.236153
C  16.391568  12.029000  -0.009485
C  17.670751  12.724286  0.228178
C  17.670751  8.371221  -0.477668
C  17.670751  9.823667  -0.375059
C  18.905140  10.553000  -0.102485
C  18.905140  12.029000  0.177730
C  17.670751  4.000000  -0.378161
C  17.670751  5.453610  -0.484834
C  18.905140  6.197900  -0.320912
C  18.905140  7.631998  -0.323726
C  20.154752  8.371221  -0.162195
C  20.154752  9.823667  -0.033870
C  18.905140  3.272000  -0.077632
C  20.154752  4.000000  -0.007772
C  20.154752  5.453610  -0.160868
C  21.411000  6.197900  -0.061101
C  21.411000  7.631998  -0.076371
C  17.670751  1.101000  0.215135
C  18.905140  1.797813  0.183710
C  5.067250  5.453610  -0.421033
C  5.067250  4.000000  -0.449419
C  3.815571  3.272000  -0.306497
C  3.815571  1.797813  -0.298811
C  11.361143  3.272000  -0.464783
C  2.546438  1.101000  -0.169266
C  3.815571  7.631998  -0.564982
C  3.815571  6.197900  -0.583345
C  11.361143  7.631998  -0.472444
C  2.546438  5.453610  -0.606917
C  11.361143  6.197900  -0.489722
C  2.546438  4.000000  -0.369286
C  10.098375  5.453610  -0.681733
C  16.391568  3.272000  -0.253245
C  1.302141  3.272000  -0.279983
C  10.098375  4.000000  -0.502783
C  16.391568  1.797813  -0.033794
C  1.302141  1.797813  -0.042325
C  8.830644  3.272000  -0.422387
C  15.145562  1.101000  -0.158329
C  0.021251  1.101000  0.206840
C  11.361143  12.029000  -0.243058
C  2.546438  9.823667  -0.326203
C  11.361143  10.553000  -0.388239
C  2.546438  8.371221  -0.590746
C  10.098375  9.823667  -0.430239
C  16.391568  7.631998  -0.621401
C  1.302141  7.631998  -0.674881
C  10.098375  8.371221  -0.634718
C  16.391568  6.197900  -0.636908
C  1.302141  6.197900  -0.677313
C  15.145562  5.453610  -0.569030
C  0.021251  5.453610  -0.550521
C  8.830644  7.631998  -0.983832
C  8.830644  6.197900  -1.004208
C  15.145562  4.000000  -0.342156
C  0.021251  4.000000  -0.436126
C  7.582124  5.453610  -0.665220
C  13.876357  3.272000  -0.285878
C  -1.214289  3.272000  -0.150598
C  7.582124  4.000000  -0.508678
C  13.876357  1.797813  -0.289342
C  -1.214289  1.797813  0.145273
C  10.098375  12.724286  -0.133773
C  1.302141  10.553000  -0.250685
C  8.830644  12.029000  -0.119435
C  15.145562  9.823667  -0.308254
C  0.021251  9.823667  -0.425114
C  8.830644  10.553000  -0.333517
C  15.145562  8.371221  -0.565777
C  0.021251  8.371221  -0.537952
C  7.582124  9.823667  -0.434262
C  13.876357  7.631998  -0.547662
C  -1.214289  7.631998  -0.407419
C  7.582124  8.371221  -0.626186
C  13.876357  6.197900  -0.550515
C  -1.214289  6.197900  -0.401580
C  6.330357  7.631998  -0.469050
C  12.623562  5.453610  -0.402531
C  -2.463372  5.453610  -0.254976
C  6.330357  6.197900  -0.490584
C  12.623562  4.000000  -0.433271
C  -2.463372  4.000000  -0.093021
C  7.582124  12.724286  -0.125852
C  13.876357  10.553000  -0.234214
C  -1.214289  10.553000  -0.137355
C  6.330357  12.029000  -0.228801
C  12.623562  9.823667  -0.371444
C  -2.463372  9.823667  -0.108162
C  6.330357  10.553000  -0.386334
C  12.623562  8.371221  -0.374686
C  -2.463372  8.371221  -0.271451
C  5.067250  9.823667  -0.363536
C  -3.721000  7.631998  -0.204300
C  5.067250  8.371221  -0.384349
C  -3.721000  6.197900  -0.204147
C  5.067250  12.724286  -0.213218
C  3.815571  12.029000  -0.202686
C  3.815571  10.553000  -0.232614
C  2.546438  12.724286  -0.087836
C  1.302141  12.029000  0.009135
C  6.330357  3.272000  -0.474699
C  15.145562  12.724286  -0.125908
C  0.021251  12.724286  0.244468
C  13.876357  12.029000  -0.220531
C  -1.214289  12.029000  0.157588
C  12.623562  12.724286  -0.232824
C  6.330357  1.797813  -0.351141
C  8.830644  1.797813  -0.240942
C  11.361143  1.797813  -0.338488
C  10.098375  1.101000  -0.260536
C  7.582124  1.101000  -0.263522
C  5.067250  1.101000  -0.325645
C  12.623562  1.101000  -0.316312
