142
frame	829
H  17.693000  13.826000  0.000000
H  19.858000  12.564000  0.000000
H  21.106000  10.363000  0.000000
H  22.366000  5.656000  0.000000
H  22.367000  8.165000  0.000000
H  19.852000  1.261000  0.000000
H  17.690000  -0.000000  0.000000
H  21.104000  3.459000  0.000000
H  2.530000  -0.005000  0.000000
H  15.160000  -0.002000  0.000000
H  0.000000  -0.000000  0.000000
H  -2.163000  1.262000  0.000000
H  -3.415000  3.463000  0.000000
H  -4.677000  8.168000  0.000000
H  -4.678000  5.662000  0.000000
H  -2.159000  12.565000  0.000000
H  10.109000  13.837000  0.000000
H  7.585000  13.838000  0.000000
H  5.062000  13.833000  0.000000
H  2.535000  13.828000  0.000000
H  15.163000  13.830000  0.000000
H  0.007000  13.825000  0.000000
H  -3.412000  10.366000  0.000000
H  12.635000  13.835000  0.000000
H  10.108000  -0.010000  0.000000
H  7.583000  -0.012000  0.000000
H  5.058000  -0.011000  0.000000
H  12.631000  -0.009000  0.000000
C  16.391568  10.553000  0.093538
C  16.391568  12.029000  -0.014775
C  17.670751  12.724286  0.109290
C  17.670751  8.371221  0.165908
C  17.670751  9.823667  0.165036
C  18.905140  10.553000  0.206086
C  18.905140  12.029000  0.190192
C  17.670751  4.000000  0.158934
C  17.670751  5.453610  0.152542
C  18.905140  6.197900  0.196313
C  18.905140  7.631998  0.192906
C  20.154752  8.371221  0.224945
C  20.154752  9.823667  0.221100
C  18.905140  3.272000  0.212122
C  20.154752  4.000000  0.233274
C  20.154752  5.453610  0.240341
C  21.411000  6.197900  0.134780
C  21.411000  7.631998  0.128502
C  17.670751  1.101000  0.101126
C  18.905140  1.797813  0.192552
C  5.067250  5.453610  0.771122
C  5.067250  4.000000  0.525920
C  3.815571  3.272000  0.384350
C  3.815571  1.797813  0.136237
C  11.361143  3.272000  0.320443
C  2.546438  1.101000  -0.093479
C  3.815571  7.631998  0.958637
C  3.815571  6.197900  0.955431
C  11.361143  7.631998  0.698937
C  2.546438  5.453610  0.624741
C  11.361143  6.197900  0.693195
C  2.546438  4.000000  0.428101
C  10.098375  5.453610  0.448198
C  16.391568  3.272000  0.089366
C  1.302141  3.272000  0.064332
C  10.098375  4.000000  0.345836
C  16.391568  1.797813  -0.052703
C  1.302141  1.797813  -0.061221
C  8.830644  3.272000  0.267448
C  15.145562  1.101000  -0.087598
C  0.021251  1.101000  0.095777
C  11.361143  12.029000  0.288791
C  2.546438  9.823667  0.469927
C  11.361143  10.553000  0.414951
C  2.546438  8.371221  0.639588
C  10.098375  9.823667  0.411648
C  16.391568  7.631998  0.309412
C  1.302141  7.631998  0.341171
C  10.098375  8.371221  0.473544
C  16.391568  6.197900  0.303617
C  1.302141  6.197900  0.332510
C  15.145562  5.453610  0.585693
C  0.021251  5.453610  0.161386
C  8.830644  7.631998  0.446938
C  8.830644  6.197900  0.433340
C  15.145562  4.000000  0.415112
C  0.021251  4.000000  0.154205
C  7.582124  5.453610  0.444010
C  13.876357  3.272000  0.359084
C  -1.214289  3.272000  0.203289
C  7.582124  4.000000  0.356542
C  13.876357  1.797813  0.115447
C  -1.214289  1.797813  0.184004
C  10.098375  12.724286  0.289693
C  1.302141  10.553000  0.099676
C  8.830644  12.029000  0.361765
C  15.145562  9.823667  0.441405
C  0.021251  9.823667  0.174534
C  8.830644  10.553000  0.349607
C  15.145562  8.371221  0.605675
C  0.021251  8.371221  0.158888
C  7.582124  9.823667  0.433418
C  13.876357  7.631998  0.932651
C  -1.214289  7.631998  0.187917
C  7.582124  8.371221  0.489837
C  13.876357  6.197900  0.929182
C  -1.214289  6.197900  0.178524
C  6.330357  7.631998  0.719904
C  12.623562  5.453610  0.746229
C  -2.463372  5.453610  0.177933
C  6.330357  6.197900  0.698681
C  12.623562  4.000000  0.504603
C  -2.463372  4.000000  0.192096
C  7.582124  12.724286  0.311114
C  13.876357  10.553000  0.424913
C  -1.214289  10.553000  0.207165
C  6.330357  12.029000  0.320758
C  12.623562  9.823667  0.568291
C  -2.463372  9.823667  0.181998
C  6.330357  10.553000  0.440775
C  12.623562  8.371221  0.771795
C  -2.463372  8.371221  0.160844
C  5.067250  9.823667  0.588809
C  -3.721000  7.631998  0.009575
C  5.067250  8.371221  0.805559
C  -3.721000  6.197900  0.020687
C  5.067250  12.724286  0.203492
C  3.815571  12.029000  0.230572
C  3.815571  10.553000  0.460952
C  2.546438  12.724286  -0.013967
C  1.302141  12.029000  -0.011399
C  6.330357  3.272000  0.358374
C  15.145562  12.724286  -0.027953
C  0.021251  12.724286  0.154132
C  13.876357  12.029000  0.180039
C  -1.214289  12.029000  0.199532
C  12.623562  12.724286  0.164162
C  6.330357  1.797813  0.199606
C  8.830644  1.797813  0.238732
C  11.361143  1.797813  0.188615
C  10.098375  1.101000  0.145443
C  7.582124  1.101000  0.179713
C  5.067250  1.101000  0.092100
C  12.623562  1.101000  0.076664
