142
frame	918
H  17.693000  13.826000  0.000000
H  19.858000  12.564000  0.000000
H  21.106000  10.363000  0.000000
H  22.366000  5.656000  0.000000
H  22.367000  8.165000  0.000000
H  19.852000  1.261000  0.000000
H  17.690000  -0.000000  0.000000
H  21.104000  3.459000  0.000000
H  2.530000  -0.005000  0.000000
H  15.160000  -0.002000  0.000000
H  0.000000  -0.000000  0.000000
H  -2.163000  1.262000  0.000000
H  -3.415000  3.463000  0.000000
H  -4.677000  8.168000  0.000000
H  -4.678000  5.662000  0.000000
H  -2.159000  12.565000  0.000000
H  10.109000  13.837000  0.000000
H  7.585000  13.838000  0.000000
H  5.062000  13.833000  0.000000
H  2.535000  13.828000  0.000000
H  15.163000  13.830000  0.000000
H  0.007000  13.825000  0.000000
H  -3.412000  10.366000  0.000000
H  12.635000  13.835000  0.000000
H  10.108000  -0.010000  0.000000
H  7.583000  -0.012000  0.000000
H  5.058000  -0.011000  0.000000
H  12.631000  -0.009000  0.000000
C  16.391568  10.553000  0.239783
C  16.391568  12.029000  0.199051
C  17.670751  12.724286  0.065328
C  17.670751  8.371221  0.132395
C  17.670751  9.823667  0.218637
C  18.905140  10.553000  0.189117
C  18.905140  12.029000  0.094688
C  17.670751  4.000000  0.200042
C  17.670751  5.453610  0.133331
C  18.905140  6.197900  0.050778
C  18.905140  7.631998  0.058178
C  20.154752  8.371221  0.077326
C  20.154752  9.823667  0.099502
C  18.905140  3.272000  0.192937
C  20.154752  4.000000  0.099106
C  20.154752  5.453610  0.086046
C  21.411000  6.197900  0.154853
C  21.411000  7.631998  0.153766
C  17.670751  1.101000  0.065884
C  18.905140  1.797813  0.084673
C  5.067250  5.453610  0.509158
C  5.067250  4.000000  0.548520
C  3.815571  3.272000  0.386096
C  3.815571  1.797813  0.283846
C  11.361143  3.272000  0.537571
C  2.546438  1.101000  0.189767
C  3.815571  7.631998  0.381092
C  3.815571  6.197900  0.380753
C  11.361143  7.631998  0.678054
C  2.546438  5.453610  0.213087
C  11.361143  6.197900  0.673260
C  2.546438  4.000000  0.275561
C  10.098375  5.453610  0.978945
C  16.391568  3.272000  0.213502
C  1.302141  3.272000  0.219124
C  10.098375  4.000000  0.750610
C  16.391568  1.797813  0.162054
C  1.302141  1.797813  0.180524
C  8.830644  3.272000  0.662510
C  15.145562  1.101000  0.187144
C  0.021251  1.101000  0.077748
C  11.361143  12.029000  0.402980
C  2.546438  9.823667  0.284772
C  11.361143  10.553000  0.613276
C  2.546438  8.371221  0.217522
C  10.098375  9.823667  0.811945
C  16.391568  7.631998  0.142463
C  1.302141  7.631998  0.144319
C  10.098375  8.371221  0.989752
C  16.391568  6.197900  0.144419
C  1.302141  6.197900  0.137270
C  15.145562  5.453610  0.199262
C  0.021251  5.453610  0.109989
C  8.830644  7.631998  1.354581
C  8.830644  6.197900  1.348565
C  15.145562  4.000000  0.254381
C  0.021251  4.000000  0.195002
C  7.582124  5.453610  0.973513
C  13.876357  3.272000  0.364002
C  -1.214289  3.272000  0.180241
C  7.582124  4.000000  0.749487
C  13.876357  1.797813  0.265302
C  -1.214289  1.797813  0.097569
C  10.098375  12.724286  0.375190
C  1.302141  10.553000  0.241486
C  8.830644  12.029000  0.573609
C  15.145562  9.823667  0.274967
C  0.021251  9.823667  0.211557
C  8.830644  10.553000  0.748719
C  15.145562  8.371221  0.196462
C  0.021251  8.371221  0.098170
C  7.582124  9.823667  0.809972
C  13.876357  7.631998  0.373687
C  -1.214289  7.631998  0.015255
C  7.582124  8.371221  0.986295
C  13.876357  6.197900  0.364666
C  -1.214289  6.197900  0.009002
C  6.330357  7.631998  0.669590
C  12.623562  5.453610  0.501825
C  -2.463372  5.453610  0.014245
C  6.330357  6.197900  0.653538
C  12.623562  4.000000  0.548221
C  -2.463372  4.000000  0.061519
C  7.582124  12.724286  0.379698
C  13.876357  10.553000  0.417793
C  -1.214289  10.553000  0.186058
C  6.330357  12.029000  0.422595
C  12.623562  9.823667  0.589726
C  -2.463372  9.823667  0.045815
C  6.330357  10.553000  0.618530
C  12.623562  8.371221  0.520765
C  -2.463372  8.371221  0.000325
C  5.067250  9.823667  0.618990
C  -3.721000  7.631998  0.030273
C  5.067250  8.371221  0.535859
C  -3.721000  6.197900  0.033519
C  5.067250  12.724286  0.287956
C  3.815571  12.029000  0.363824
C  3.815571  10.553000  0.430739
C  2.546438  12.724286  0.270748
C  1.302141  12.029000  0.223527
C  6.330357  3.272000  0.549422
C  15.145562  12.724286  0.229758
C  0.021251  12.724286  0.095015
C  13.876357  12.029000  0.332842
C  -1.214289  12.029000  0.097346
C  12.623562  12.724286  0.252613
C  6.330357  1.797813  0.313849
C  8.830644  1.797813  0.449956
C  11.361143  1.797813  0.307073
C  10.098375  1.101000  0.249236
C  7.582124  1.101000  0.252436
C  5.067250  1.101000  0.175121
C  12.623562  1.101000  0.142828
