142
frame	451
H  17.693000  13.826000  0.000000
H  19.858000  12.564000  0.000000
H  21.106000  10.363000  0.000000
H  22.366000  5.656000  0.000000
H  22.367000  8.165000  0.000000
H  19.852000  1.261000  0.000000
H  17.690000  -0.000000  0.000000
H  21.104000  3.459000  0.000000
H  2.530000  -0.005000  0.000000
H  15.160000  -0.002000  0.000000
H  0.000000  -0.000000  0.000000
H  -2.163000  1.262000  0.000000
H  -3.415000  3.463000  0.000000
H  -4.677000  8.168000  0.000000
H  -4.678000  5.662000  0.000000
H  -2.159000  12.565000  0.000000
H  10.109000  13.837000  0.000000
H  7.585000  13.838000  0.000000
H  5.062000  13.833000  0.000000
H  2.535000  13.828000  0.000000
H  15.163000  13.830000  0.000000
H  0.007000  13.825000  0.000000
H  -3.412000  10.366000  0.000000
H  12.635000  13.835000  0.000000
H  10.108000  -0.010000  0.000000
H  7.583000  -0.012000  0.000000
H  5.058000  -0.011000  0.000000
H  12.631000  -0.009000  0.000000
C  16.391568  10.553000  -0.435747
C  16.391568  12.029000  -0.412440
C  17.670751  12.724286  -0.190747
C  17.670751  8.371221  -0.490359
C  17.670751  9.823667  -0.333129
C  18.905140  10.553000  -0.074836
C  18.905140  12.029000  -0.031644
C  17.670751  4.000000  -0.335942
C  17.670751  5.453610  -0.507200
C  18.905140  6.197900  -0.167618
C  18.905140  7.631998  -0.169502
C  20.154752  8.371221  0.127676
C  20.154752  9.823667  0.123049
C  18.905140  3.272000  -0.060063
C  20.154752  4.000000  0.144530
C  20.154752  5.453610  0.128803
C  21.411000  6.197900  0.248958
C  21.411000  7.631998  0.241522
C  17.670751  1.101000  -0.204935
C  18.905140  1.797813  -0.024075
C  5.067250  5.453610  -0.394718
C  5.067250  4.000000  -0.530846
C  3.815571  3.272000  -0.595194
C  3.815571  1.797813  -0.395489
C  11.361143  3.272000  -0.173734
C  2.546438  1.101000  -0.386788
C  3.815571  7.631998  -0.455962
C  3.815571  6.197900  -0.459926
C  11.361143  7.631998  -0.263367
C  2.546438  5.453610  -0.534199
C  11.361143  6.197900  -0.270958
C  2.546438  4.000000  -0.525913
C  10.098375  5.453610  -0.256364
C  16.391568  3.272000  -0.449939
C  1.302141  3.272000  -0.466948
C  10.098375  4.000000  -0.128406
C  16.391568  1.797813  -0.415185
C  1.302141  1.797813  -0.447486
C  8.830644  3.272000  0.077457
C  15.145562  1.101000  -0.387143
C  0.021251  1.101000  -0.204616
C  11.361143  12.029000  0.086591
C  2.546438  9.823667  -0.501963
C  11.361143  10.553000  -0.113216
C  2.546438  8.371221  -0.520969
C  10.098375  9.823667  -0.060529
C  16.391568  7.631998  -0.607500
C  1.302141  7.631998  -0.684631
C  10.098375  8.371221  -0.235026
C  16.391568  6.197900  -0.618631
C  1.302141  6.197900  -0.679758
C  15.145562  5.453610  -0.481718
C  0.021251  5.453610  -0.563502
C  8.830644  7.631998  -0.448298
C  8.830644  6.197900  -0.471397
C  15.145562  4.000000  -0.510511
C  0.021251  4.000000  -0.379013
C  7.582124  5.453610  -0.264632
C  13.876357  3.272000  -0.584943
C  -1.214289  3.272000  -0.118899
C  7.582124  4.000000  -0.154187
C  13.876357  1.797813  -0.393524
C  -1.214289  1.797813  -0.030295
C  10.098375  12.724286  0.131233
C  1.302141  10.553000  -0.442456
C  8.830644  12.029000  0.221440
C  15.145562  9.823667  -0.481061
C  0.021251  9.823667  -0.374235
C  8.830644  10.553000  0.164065
C  15.145562  8.371221  -0.476941
C  0.021251  8.371221  -0.560178
C  7.582124  9.823667  -0.072428
C  13.876357  7.631998  -0.411395
C  -1.214289  7.631998  -0.239602
C  7.582124  8.371221  -0.231703
C  13.876357  6.197900  -0.413469
C  -1.214289  6.197900  -0.249912
C  6.330357  7.631998  -0.260305
C  12.623562  5.453610  -0.371812
C  -2.463372  5.453610  0.045091
C  6.330357  6.197900  -0.276303
C  12.623562  4.000000  -0.517066
C  -2.463372  4.000000  0.076342
C  7.582124  12.724286  0.148148
C  13.876357  10.553000  -0.524846
C  -1.214289  10.553000  -0.121422
C  6.330357  12.029000  0.090298
C  12.623562  9.823667  -0.453914
C  -2.463372  9.823667  0.064749
C  6.330357  10.553000  -0.117871
C  12.623562  8.371221  -0.353593
C  -2.463372  8.371221  0.033101
C  5.067250  9.823667  -0.484306
C  -3.721000  7.631998  0.103085
C  5.067250  8.371221  -0.369578
C  -3.721000  6.197900  0.107188
C  5.067250  12.724286  0.070475
C  3.815571  12.029000  -0.315245
C  3.815571  10.553000  -0.542771
C  2.546438  12.724286  -0.308333
C  1.302141  12.029000  -0.401489
C  6.330357  3.272000  -0.189926
C  15.145562  12.724286  -0.347098
C  0.021251  12.724286  -0.184383
C  13.876357  12.029000  -0.320947
C  -1.214289  12.029000  -0.026924
C  12.623562  12.724286  0.051131
C  6.330357  1.797813  -0.002453
C  8.830644  1.797813  0.113582
C  11.361143  1.797813  -0.005263
C  10.098375  1.101000  0.029733
C  7.582124  1.101000  0.019714
C  5.067250  1.101000  -0.028057
C  12.623562  1.101000  -0.032345
