142
frame	692
H  17.693000  13.826000  0.000000
H  19.858000  12.564000  0.000000
H  21.106000  10.363000  0.000000
H  22.366000  5.656000  0.000000
H  22.367000  8.165000  0.000000
H  19.852000  1.261000  0.000000
H  17.690000  -0.000000  0.000000
H  21.104000  3.459000  0.000000
H  2.530000  -0.005000  0.000000
H  15.160000  -0.002000  0.000000
H  0.000000  -0.000000  0.000000
H  -2.163000  1.262000  0.000000
H  -3.415000  3.463000  0.000000
H  -4.677000  8.168000  0.000000
H  -4.678000  5.662000  0.000000
H  -2.159000  12.565000  0.000000
H  10.109000  13.837000  0.000000
H  7.585000  13.838000  0.000000
H  5.062000  13.833000  0.000000
H  2.535000  13.828000  0.000000
H  15.163000  13.830000  0.000000
H  0.007000  13.825000  0.000000
H  -3.412000  10.366000  0.000000
H  12.635000  13.835000  0.000000
H  10.108000  -0.010000  0.000000
H  7.583000  -0.012000  0.000000
H  5.058000  -0.011000  0.000000
H  12.631000  -0.009000  0.000000
C  16.391568  10.553000  0.492136
C  16.391568  12.029000  0.395478
C  17.670751  12.724286  0.268506
C  17.670751  8.371221  0.578357
C  17.670751  9.823667  0.607018
C  18.905140  10.553000  0.489769
C  18.905140  12.029000  0.256853
C  17.670751  4.000000  0.605522
C  17.670751  5.453610  0.571716
C  18.905140  6.197900  0.620961
C  18.905140  7.631998  0.605012
C  20.154752  8.371221  0.533938
C  20.154752  9.823667  0.357218
C  18.905140  3.272000  0.499141
C  20.154752  4.000000  0.369039
C  20.154752  5.453610  0.544429
C  21.411000  6.197900  0.515379
C  21.411000  7.631998  0.502030
C  17.670751  1.101000  0.278928
C  18.905140  1.797813  0.279453
C  5.067250  5.453610  0.236009
C  5.067250  4.000000  0.109395
C  3.815571  3.272000  0.064391
C  3.815571  1.797813  -0.049182
C  11.361143  3.272000  0.094206
C  2.546438  1.101000  0.096371
C  3.815571  7.631998  0.203190
C  3.815571  6.197900  0.199993
C  11.361143  7.631998  0.132790
C  2.546438  5.453610  0.181637
C  11.361143  6.197900  0.126722
C  2.546438  4.000000  0.249845
C  10.098375  5.453610  -0.059147
C  16.391568  3.272000  0.500849
C  1.302141  3.272000  0.500442
C  10.098375  4.000000  0.042073
C  16.391568  1.797813  0.378969
C  1.302141  1.797813  0.382829
C  8.830644  3.272000  0.096156
C  15.145562  1.101000  0.079533
C  0.021251  1.101000  0.261456
C  11.361143  12.029000  0.043681
C  2.546438  9.823667  0.283822
C  11.361143  10.553000  0.170385
C  2.546438  8.371221  0.194206
C  10.098375  9.823667  0.112142
C  16.391568  7.631998  0.378274
C  1.302141  7.631998  0.396262
C  10.098375  8.371221  -0.032224
C  16.391568  6.197900  0.391861
C  1.302141  6.197900  0.391093
C  15.145562  5.453610  0.146604
C  0.021251  5.453610  0.540979
C  8.830644  7.631998  -0.240786
C  8.830644  6.197900  -0.259399
C  15.145562  4.000000  0.224035
C  0.021251  4.000000  0.584430
C  7.582124  5.453610  -0.054067
C  13.876357  3.272000  0.053259
C  -1.214289  3.272000  0.471714
C  7.582124  4.000000  0.042542
C  13.876357  1.797813  -0.058760
C  -1.214289  1.797813  0.266124
C  10.098375  12.724286  0.046548
C  1.302141  10.553000  0.541410
C  8.830644  12.029000  0.058364
C  15.145562  9.823667  0.235216
C  0.021251  9.823667  0.592807
C  8.830644  10.553000  0.184575
C  15.145562  8.371221  0.146428
C  0.021251  8.371221  0.544208
C  7.582124  9.823667  0.126885
C  13.876357  7.631998  0.161789
C  -1.214289  7.631998  0.549223
C  7.582124  8.371221  -0.007105
C  13.876357  6.197900  0.160890
C  -1.214289  6.197900  0.560158
C  6.330357  7.631998  0.149149
C  12.623562  5.453610  0.228420
C  -2.463372  5.453610  0.439360
C  6.330357  6.197900  0.137137
C  12.623562  4.000000  0.090989
C  -2.463372  4.000000  0.304206
C  7.582124  12.724286  0.079808
C  13.876357  10.553000  0.093414
C  -1.214289  10.553000  0.465210
C  6.330357  12.029000  0.113467
C  12.623562  9.823667  0.139519
C  -2.463372  9.823667  0.284141
C  6.330357  10.553000  0.215712
C  12.623562  8.371221  0.226764
C  -2.463372  8.371221  0.433796
C  5.067250  9.823667  0.188086
C  -3.721000  7.631998  0.376957
C  5.067250  8.371221  0.267570
C  -3.721000  6.197900  0.387133
C  5.067250  12.724286  0.072755
C  3.815571  12.029000  0.049651
C  3.815571  10.553000  0.139395
C  2.546438  12.724286  0.179124
C  1.302141  12.029000  0.434068
C  6.330357  3.272000  0.123401
C  15.145562  12.724286  0.135578
C  0.021251  12.724286  0.300156
C  13.876357  12.029000  0.006834
C  -1.214289  12.029000  0.273706
C  12.623562  12.724286  0.018786
C  6.330357  1.797813  -0.006763
C  8.830644  1.797813  -0.066716
C  11.361143  1.797813  -0.047425
C  10.098375  1.101000  -0.082005
C  7.582124  1.101000  -0.052440
C  5.067250  1.101000  -0.048070
C  12.623562  1.101000  -0.060764
