142
frame	848
H  17.693000  13.826000  0.000000
H  19.858000  12.564000  0.000000
H  21.106000  10.363000  0.000000
H  22.366000  5.656000  0.000000
H  22.367000  8.165000  0.000000
H  19.852000  1.261000  0.000000
H  17.690000  -0.000000  0.000000
H  21.104000  3.459000  0.000000
H  2.530000  -0.005000  0.000000
H  15.160000  -0.002000  0.000000
H  0.000000  -0.000000  0.000000
H  -2.163000  1.262000  0.000000
H  -3.415000  3.463000  0.000000
H  -4.677000  8.168000  0.000000
H  -4.678000  5.662000  0.000000
H  -2.159000  12.565000  0.000000
H  10.109000  13.837000  0.000000
H  7.585000  13.838000  0.000000
H  5.062000  13.833000  0.000000
H  2.535000  13.828000  0.000000
H  15.163000  13.830000  0.000000
H  0.007000  13.825000  0.000000
H  -3.412000  10.366000  0.000000
H  12.635000  13.835000  0.000000
H  10.108000  -0.010000  0.000000
H  7.583000  -0.012000  0.000000
H  5.058000  -0.011000  0.000000
H  12.631000  -0.009000  0.000000
C  16.391568  10.553000  0.212297
C  16.391568  12.029000  0.085099
C  17.670751  12.724286  -0.047797
C  17.670751  8.371221  0.138541
C  17.670751  9.823667  0.218444
C  18.905140  10.553000  0.227758
C  18.905140  12.029000  0.092406
C  17.670751  4.000000  0.201884
C  17.670751  5.453610  0.139785
C  18.905140  6.197900  -0.022858
C  18.905140  7.631998  -0.020826
C  20.154752  8.371221  0.074237
C  20.154752  9.823667  0.171956
C  18.905140  3.272000  0.226227
C  20.154752  4.000000  0.191580
C  20.154752  5.453610  0.082829
C  21.411000  6.197900  0.279201
C  21.411000  7.631998  0.274117
C  17.670751  1.101000  -0.052377
C  18.905140  1.797813  0.117976
C  5.067250  5.453610  0.796176
C  5.067250  4.000000  0.615403
C  3.815571  3.272000  0.373847
C  3.815571  1.797813  0.158470
C  11.361143  3.272000  0.465612
C  2.546438  1.101000  0.059692
C  3.815571  7.631998  0.865413
C  3.815571  6.197900  0.834333
C  11.361143  7.631998  0.664968
C  2.546438  5.453610  0.555400
C  11.361143  6.197900  0.636576
C  2.546438  4.000000  0.263841
C  10.098375  5.453610  0.558997
C  16.391568  3.272000  0.172610
C  1.302141  3.272000  0.195084
C  10.098375  4.000000  0.416340
C  16.391568  1.797813  0.069491
C  1.302141  1.797813  0.067319
C  8.830644  3.272000  0.340375
C  15.145562  1.101000  0.057060
C  0.021251  1.101000  -0.058226
C  11.361143  12.029000  0.363086
C  2.546438  9.823667  0.302539
C  11.361143  10.553000  0.541177
C  2.546438  8.371221  0.567228
C  10.098375  9.823667  0.490613
C  16.391568  7.631998  0.324629
C  1.302141  7.631998  0.339011
C  10.098375  8.371221  0.592396
C  16.391568  6.197900  0.316345
C  1.302141  6.197900  0.343700
C  15.145562  5.453610  0.534437
C  0.021251  5.453610  0.150388
C  8.830644  7.631998  0.693056
C  8.830644  6.197900  0.685563
C  15.145562  4.000000  0.238896
C  0.021251  4.000000  0.197883
C  7.582124  5.453610  0.585105
C  13.876357  3.272000  0.347222
C  -1.214289  3.272000  0.199360
C  7.582124  4.000000  0.431937
C  13.876357  1.797813  0.141284
C  -1.214289  1.797813  0.088775
C  10.098375  12.724286  0.260921
C  1.302141  10.553000  0.231723
C  8.830644  12.029000  0.328345
C  15.145562  9.823667  0.285570
C  0.021251  9.823667  0.214276
C  8.830644  10.553000  0.433779
C  15.145562  8.371221  0.555962
C  0.021251  8.371221  0.166382
C  7.582124  9.823667  0.497732
C  13.876357  7.631998  0.831448
C  -1.214289  7.631998  -0.044457
C  7.582124  8.371221  0.595434
C  13.876357  6.197900  0.817029
C  -1.214289  6.197900  -0.034197
C  6.330357  7.631998  0.662427
C  12.623562  5.453610  0.793492
C  -2.463372  5.453610  0.029830
C  6.330357  6.197900  0.647202
C  12.623562  4.000000  0.586381
C  -2.463372  4.000000  0.134987
C  7.582124  12.724286  0.268218
C  13.876357  10.553000  0.399546
C  -1.214289  10.553000  0.206869
C  6.330357  12.029000  0.392211
C  12.623562  9.823667  0.647403
C  -2.463372  9.823667  0.126619
C  6.330357  10.553000  0.562241
C  12.623562  8.371221  0.828186
C  -2.463372  8.371221  0.024422
C  5.067250  9.823667  0.684005
C  -3.721000  7.631998  0.163802
C  5.067250  8.371221  0.838627
C  -3.721000  6.197900  0.172798
C  5.067250  12.724286  0.245237
C  3.815571  12.029000  0.244132
C  3.815571  10.553000  0.436987
C  2.546438  12.724286  0.135298
C  1.302141  12.029000  0.119996
C  6.330357  3.272000  0.478375
C  15.145562  12.724286  0.102427
C  0.021251  12.724286  -0.038835
C  13.876357  12.029000  0.206835
C  -1.214289  12.029000  0.101146
C  12.623562  12.724286  0.203160
C  6.330357  1.797813  0.287270
C  8.830644  1.797813  0.207786
C  11.361143  1.797813  0.264015
C  10.098375  1.101000  0.137890
C  7.582124  1.101000  0.128331
C  5.067250  1.101000  0.131111
C  12.623562  1.101000  0.120897
