142
frame	650
H  17.693000  13.826000  0.000000
H  19.858000  12.564000  0.000000
H  21.106000  10.363000  0.000000
H  22.366000  5.656000  0.000000
H  22.367000  8.165000  0.000000
H  19.852000  1.261000  0.000000
H  17.690000  -0.000000  0.000000
H  21.104000  3.459000  0.000000
H  2.530000  -0.005000  0.000000
H  15.160000  -0.002000  0.000000
H  0.000000  -0.000000  0.000000
H  -2.163000  1.262000  0.000000
H  -3.415000  3.463000  0.000000
H  -4.677000  8.168000  0.000000
H  -4.678000  5.662000  0.000000
H  -2.159000  12.565000  0.000000
H  10.109000  13.837000  0.000000
H  7.585000  13.838000  0.000000
H  5.062000  13.833000  0.000000
H  2.535000  13.828000  0.000000
H  15.163000  13.830000  0.000000
H  0.007000  13.825000  0.000000
H  -3.412000  10.366000  0.000000
H  12.635000  13.835000  0.000000
H  10.108000  -0.010000  0.000000
H  7.583000  -0.012000  0.000000
H  5.058000  -0.011000  0.000000
H  12.631000  -0.009000  0.000000
C  16.391568  10.553000  0.120458
C  16.391568  12.029000  0.026826
C  17.670751  12.724286  -0.016405
C  17.670751  8.371221  0.466713
C  17.670751  9.823667  0.253744
C  18.905140  10.553000  0.228569
C  18.905140  12.029000  0.035871
C  17.670751  4.000000  0.262376
C  17.670751  5.453610  0.475969
C  18.905140  6.197900  0.473817
C  18.905140  7.631998  0.458961
C  20.154752  8.371221  0.399369
C  20.154752  9.823667  0.308003
C  18.905140  3.272000  0.254747
C  20.154752  4.000000  0.328711
C  20.154752  5.453610  0.398592
C  21.411000  6.197900  0.321245
C  21.411000  7.631998  0.315117
C  17.670751  1.101000  -0.024808
C  18.905140  1.797813  0.050330
C  5.067250  5.453610  -0.068636
C  5.067250  4.000000  0.031007
C  3.815571  3.272000  0.262429
C  3.815571  1.797813  0.147962
C  11.361143  3.272000  -0.098416
C  2.546438  1.101000  0.083201
C  3.815571  7.631998  0.302668
C  3.815571  6.197900  0.282864
C  11.361143  7.631998  -0.241387
C  2.546438  5.453610  0.416863
C  11.361143  6.197900  -0.261967
C  2.546438  4.000000  0.280579
C  10.098375  5.453610  -0.135263
C  16.391568  3.272000  0.109667
C  1.302141  3.272000  0.101910
C  10.098375  4.000000  -0.239792
C  16.391568  1.797813  -0.002379
C  1.302141  1.797813  0.002200
C  8.830644  3.272000  -0.197635
C  15.145562  1.101000  0.073185
C  0.021251  1.101000  -0.024686
C  11.361143  12.029000  -0.007725
C  2.546438  9.823667  0.316867
C  11.361143  10.553000  -0.046466
C  2.546438  8.371221  0.445838
C  10.098375  9.823667  -0.186977
C  16.391568  7.631998  0.542370
C  1.302141  7.631998  0.557909
C  10.098375  8.371221  -0.110663
C  16.391568  6.197900  0.559493
C  1.302141  6.197900  0.542738
C  15.145562  5.453610  0.422059
C  0.021251  5.453610  0.464790
C  8.830644  7.631998  0.060639
C  8.830644  6.197900  0.044350
C  15.145562  4.000000  0.276525
C  0.021251  4.000000  0.243002
C  7.582124  5.453610  -0.103888
C  13.876357  3.272000  0.256168
C  -1.214289  3.272000  0.198447
C  7.582124  4.000000  -0.233744
C  13.876357  1.797813  0.124258
C  -1.214289  1.797813  0.018992
C  10.098375  12.724286  0.107784
C  1.302141  10.553000  0.143521
C  8.830644  12.029000  -0.004613
C  15.145562  9.823667  0.300623
C  0.021251  9.823667  0.252031
C  8.830644  10.553000  -0.126890
C  15.145562  8.371221  0.429382
C  0.021251  8.371221  0.468450
C  7.582124  9.823667  -0.178690
C  13.876357  7.631998  0.287218
C  -1.214289  7.631998  0.414659
C  7.582124  8.371221  -0.079994
C  13.876357  6.197900  0.272433
C  -1.214289  6.197900  0.428271
C  6.330357  7.631998  -0.239200
C  12.623562  5.453610  -0.088279
C  -2.463372  5.453610  0.315011
C  6.330357  6.197900  -0.241524
C  12.623562  4.000000  0.005234
C  -2.463372  4.000000  0.252169
C  7.582124  12.724286  0.105029
C  13.876357  10.553000  0.272764
C  -1.214289  10.553000  0.199599
C  6.330357  12.029000  0.025078
C  12.623562  9.823667  0.031672
C  -2.463372  9.823667  0.251534
C  6.330357  10.553000  -0.020970
C  12.623562  8.371221  -0.070663
C  -2.463372  8.371221  0.315667
C  5.067250  9.823667  0.088584
C  -3.721000  7.631998  0.200055
C  5.067250  8.371221  -0.040009
C  -3.721000  6.197900  0.203345
C  5.067250  12.724286  0.121446
C  3.815571  12.029000  0.231601
C  3.815571  10.553000  0.316722
C  2.546438  12.724286  0.166006
C  1.302141  12.029000  0.048556
C  6.330357  3.272000  -0.083102
C  15.145562  12.724286  0.105115
C  0.021251  12.724286  -0.015803
C  13.876357  12.029000  0.183414
C  -1.214289  12.029000  0.019722
C  12.623562  12.724286  0.078848
C  6.330357  1.797813  -0.103396
C  8.830644  1.797813  -0.129309
C  11.361143  1.797813  -0.105278
C  10.098375  1.101000  -0.028870
C  7.582124  1.101000  -0.039474
C  5.067250  1.101000  -0.006965
C  12.623562  1.101000  -0.030986
