142
frame	67
H  17.693000  13.826000  0.000000
H  19.858000  12.564000  0.000000
H  21.106000  10.363000  0.000000
H  22.366000  5.656000  0.000000
H  22.367000  8.165000  0.000000
H  19.852000  1.261000  0.000000
H  17.690000  -0.000000  0.000000
H  21.104000  3.459000  0.000000
H  2.530000  -0.005000  0.000000
H  15.160000  -0.002000  0.000000
H  0.000000  -0.000000  0.000000
H  -2.163000  1.262000  0.000000
H  -3.415000  3.463000  0.000000
H  -4.677000  8.168000  0.000000
H  -4.678000  5.662000  0.000000
H  -2.159000  12.565000  0.000000
H  10.109000  13.837000  0.000000
H  7.585000  13.838000  0.000000
H  5.062000  13.833000  0.000000
H  2.535000  13.828000  0.000000
H  15.163000  13.830000  0.000000
H  0.007000  13.825000  0.000000
H  -3.412000  10.366000  0.000000
H  12.635000  13.835000  0.000000
H  10.108000  -0.010000  0.000000
H  7.583000  -0.012000  0.000000
H  5.058000  -0.011000  0.000000
H  12.631000  -0.009000  0.000000
C  16.391568  10.553000  -0.017859
C  16.391568  12.029000  0.017374
C  17.670751  12.724286  0.036273
C  17.670751  8.371221  0.031288
C  17.670751  9.823667  0.057916
C  18.905140  10.553000  0.091687
C  18.905140  12.029000  0.053348
C  17.670751  4.000000  0.051352
C  17.670751  5.453610  0.029860
C  18.905140  6.197900  0.103125
C  18.905140  7.631998  0.103255
C  20.154752  8.371221  0.150343
C  20.154752  9.823667  0.126003
C  18.905140  3.272000  0.100875
C  20.154752  4.000000  0.141182
C  20.154752  5.453610  0.157183
C  21.411000  6.197900  0.211104
C  21.411000  7.631998  0.204959
C  17.670751  1.101000  0.033728
C  18.905140  1.797813  0.068437
C  5.067250  5.453610  -0.050502
C  5.067250  4.000000  0.136753
C  3.815571  3.272000  0.089116
C  3.815571  1.797813  -0.054522
C  11.361143  3.272000  -0.034136
C  2.546438  1.101000  -0.069693
C  3.815571  7.631998  0.236093
C  3.815571  6.197900  0.228953
C  11.361143  7.631998  -0.512742
C  2.546438  5.453610  0.119386
C  11.361143  6.197900  -0.496976
C  2.546438  4.000000  -0.016539
C  10.098375  5.453610  -0.593165
C  16.391568  3.272000  -0.036778
C  1.302141  3.272000  -0.025960
C  10.098375  4.000000  -0.357671
C  16.391568  1.797813  -0.008198
C  1.302141  1.797813  0.000760
C  8.830644  3.272000  -0.267485
C  15.145562  1.101000  -0.083423
C  0.021251  1.101000  0.030885
C  11.361143  12.029000  0.128612
C  2.546438  9.823667  0.023394
C  11.361143  10.553000  0.042373
C  2.546438  8.371221  0.138951
C  10.098375  9.823667  -0.305357
C  16.391568  7.631998  -0.003505
C  1.302141  7.631998  0.021689
C  10.098375  8.371221  -0.558371
C  16.391568  6.197900  0.001396
C  1.302141  6.197900  0.013622
C  15.145562  5.453610  0.084362
C  0.021251  5.453610  0.023987
C  8.830644  7.631998  -0.475275
C  8.830644  6.197900  -0.476161
C  15.145562  4.000000  -0.038127
C  0.021251  4.000000  0.046446
C  7.582124  5.453610  -0.592897
C  13.876357  3.272000  0.058101
C  -1.214289  3.272000  0.073739
C  7.582124  4.000000  -0.347353
C  13.876357  1.797813  -0.074664
C  -1.214289  1.797813  0.048774
C  10.098375  12.724286  0.201554
C  1.302141  10.553000  0.007303
C  8.830644  12.029000  0.136478
C  15.145562  9.823667  -0.028325
C  0.021251  9.823667  0.060380
C  8.830644  10.553000  -0.174825
C  15.145562  8.371221  0.089903
C  0.021251  8.371221  0.031432
C  7.582124  9.823667  -0.274769
C  13.876357  7.631998  0.200754
C  -1.214289  7.631998  0.072331
C  7.582124  8.371221  -0.561149
C  13.876357  6.197900  0.175488
C  -1.214289  6.197900  0.073111
C  6.330357  7.631998  -0.478761
C  12.623562  5.453610  -0.074966
C  -2.463372  5.453610  0.093004
C  6.330357  6.197900  -0.502000
C  12.623562  4.000000  0.098833
C  -2.463372  4.000000  0.083297
C  7.582124  12.724286  0.229597
C  13.876357  10.553000  0.086328
C  -1.214289  10.553000  0.076911
C  6.330357  12.029000  0.157256
C  12.623562  9.823667  0.158232
C  -2.463372  9.823667  0.075299
C  6.330357  10.553000  0.051438
C  12.623562  8.371221  -0.048283
C  -2.463372  8.371221  0.088304
C  5.067250  9.823667  0.181723
C  -3.721000  7.631998  0.097175
C  5.067250  8.371221  -0.027858
C  -3.721000  6.197900  0.101331
C  5.067250  12.724286  0.113406
C  3.815571  12.029000  0.034753
C  3.815571  10.553000  0.150105
C  2.546438  12.724286  0.005693
C  1.302141  12.029000  0.046105
C  6.330357  3.272000  -0.011892
C  15.145562  12.724286  -0.034401
C  0.021251  12.724286  0.059123
C  13.876357  12.029000  -0.024450
C  -1.214289  12.029000  0.054036
C  12.623562  12.724286  0.050817
C  6.330357  1.797813  0.051178
C  8.830644  1.797813  0.027945
C  11.361143  1.797813  0.039146
C  10.098375  1.101000  0.101878
C  7.582124  1.101000  0.108300
C  5.067250  1.101000  -0.007383
C  12.623562  1.101000  -0.024163
