142
frame	930
H  17.693000  13.826000  0.000000
H  19.858000  12.564000  0.000000
H  21.106000  10.363000  0.000000
H  22.366000  5.656000  0.000000
H  22.367000  8.165000  0.000000
H  19.852000  1.261000  0.000000
H  17.690000  -0.000000  0.000000
H  21.104000  3.459000  0.000000
H  2.530000  -0.005000  0.000000
H  15.160000  -0.002000  0.000000
H  0.000000  -0.000000  0.000000
H  -2.163000  1.262000  0.000000
H  -3.415000  3.463000  0.000000
H  -4.677000  8.168000  0.000000
H  -4.678000  5.662000  0.000000
H  -2.159000  12.565000  0.000000
H  10.109000  13.837000  0.000000
H  7.585000  13.838000  0.000000
H  5.062000  13.833000  0.000000
H  2.535000  13.828000  0.000000
H  15.163000  13.830000  0.000000
H  0.007000  13.825000  0.000000
H  -3.412000  10.366000  0.000000
H  12.635000  13.835000  0.000000
H  10.108000  -0.010000  0.000000
H  7.583000  -0.012000  0.000000
H  5.058000  -0.011000  0.000000
H  12.631000  -0.009000  0.000000
C  16.391568  10.553000  0.221101
C  16.391568  12.029000  0.143150
C  17.670751  12.724286  0.077724
C  17.670751  8.371221  0.112314
C  17.670751  9.823667  0.281077
C  18.905140  10.553000  0.245686
C  18.905140  12.029000  0.112597
C  17.670751  4.000000  0.271892
C  17.670751  5.453610  0.122395
C  18.905140  6.197900  -0.064121
C  18.905140  7.631998  -0.064679
C  20.154752  8.371221  0.171153
C  20.154752  9.823667  0.241927
C  18.905140  3.272000  0.232943
C  20.154752  4.000000  0.247105
C  20.154752  5.453610  0.174826
C  21.411000  6.197900  0.238688
C  21.411000  7.631998  0.241791
C  17.670751  1.101000  0.067792
C  18.905140  1.797813  0.119077
C  5.067250  5.453610  0.550483
C  5.067250  4.000000  0.500895
C  3.815571  3.272000  0.295715
C  3.815571  1.797813  0.216082
C  11.361143  3.272000  0.609068
C  2.546438  1.101000  0.092181
C  3.815571  7.631998  0.405752
C  3.815571  6.197900  0.386710
C  11.361143  7.631998  0.734309
C  2.546438  5.453610  0.244716
C  11.361143  6.197900  0.718860
C  2.546438  4.000000  0.140685
C  10.098375  5.453610  0.962324
C  16.391568  3.272000  0.181703
C  1.302141  3.272000  0.197265
C  10.098375  4.000000  0.754583
C  16.391568  1.797813  0.113368
C  1.302141  1.797813  0.118206
C  8.830644  3.272000  0.663171
C  15.145562  1.101000  0.093528
C  0.021251  1.101000  0.079759
C  11.361143  12.029000  0.446103
C  2.546438  9.823667  0.148833
C  11.361143  10.553000  0.674579
C  2.546438  8.371221  0.245791
C  10.098375  9.823667  0.818841
C  16.391568  7.631998  0.116992
C  1.302141  7.631998  0.102425
C  10.098375  8.371221  0.981396
C  16.391568  6.197900  0.122750
C  1.302141  6.197900  0.116232
C  15.145562  5.453610  0.232838
C  0.021251  5.453610  0.101525
C  8.830644  7.631998  1.218182
C  8.830644  6.197900  1.214214
C  15.145562  4.000000  0.127709
C  0.021251  4.000000  0.265716
C  7.582124  5.453610  0.942175
C  13.876357  3.272000  0.303458
C  -1.214289  3.272000  0.242127
C  7.582124  4.000000  0.769627
C  13.876357  1.797813  0.191990
C  -1.214289  1.797813  0.110759
C  10.098375  12.724286  0.415750
C  1.302141  10.553000  0.215820
C  8.830644  12.029000  0.574350
C  15.145562  9.823667  0.149867
C  0.021251  9.823667  0.277596
C  8.830644  10.553000  0.749391
C  15.145562  8.371221  0.224699
C  0.021251  8.371221  0.093809
C  7.582124  9.823667  0.819661
C  13.876357  7.631998  0.392329
C  -1.214289  7.631998  -0.127594
C  7.582124  8.371221  0.961499
C  13.876357  6.197900  0.390164
C  -1.214289  6.197900  -0.101672
C  6.330357  7.631998  0.729298
C  12.623562  5.453610  0.540310
C  -2.463372  5.453610  0.096934
C  6.330357  6.197900  0.712054
C  12.623562  4.000000  0.494925
C  -2.463372  4.000000  0.193942
C  7.582124  12.724286  0.419746
C  13.876357  10.553000  0.341976
C  -1.214289  10.553000  0.244782
C  6.330357  12.029000  0.465394
C  12.623562  9.823667  0.535872
C  -2.463372  9.823667  0.184492
C  6.330357  10.553000  0.696960
C  12.623562  8.371221  0.556208
C  -2.463372  8.371221  0.088056
C  5.067250  9.823667  0.562719
C  -3.721000  7.631998  0.108385
C  5.067250  8.371221  0.578599
C  -3.721000  6.197900  0.116364
C  5.067250  12.724286  0.280006
C  3.815571  12.029000  0.295686
C  3.815571  10.553000  0.347625
C  2.546438  12.724286  0.173006
C  1.302141  12.029000  0.165266
C  6.330357  3.272000  0.622008
C  15.145562  12.724286  0.140075
C  0.021251  12.724286  0.108850
C  13.876357  12.029000  0.261477
C  -1.214289  12.029000  0.116376
C  12.623562  12.724286  0.262397
C  6.330357  1.797813  0.356887
C  8.830644  1.797813  0.456726
C  11.361143  1.797813  0.346884
C  10.098375  1.101000  0.283362
C  7.582124  1.101000  0.286410
C  5.067250  1.101000  0.174065
C  12.623562  1.101000  0.144765
