142
frame	258
H  17.693000  13.826000  0.000000
H  19.858000  12.564000  0.000000
H  21.106000  10.363000  0.000000
H  22.366000  5.656000  0.000000
H  22.367000  8.165000  0.000000
H  19.852000  1.261000  0.000000
H  17.690000  -0.000000  0.000000
H  21.104000  3.459000  0.000000
H  2.530000  -0.005000  0.000000
H  15.160000  -0.002000  0.000000
H  0.000000  -0.000000  0.000000
H  -2.163000  1.262000  0.000000
H  -3.415000  3.463000  0.000000
H  -4.677000  8.168000  0.000000
H  -4.678000  5.662000  0.000000
H  -2.159000  12.565000  0.000000
H  10.109000  13.837000  0.000000
H  7.585000  13.838000  0.000000
H  5.062000  13.833000  0.000000
H  2.535000  13.828000  0.000000
H  15.163000  13.830000  0.000000
H  0.007000  13.825000  0.000000
H  -3.412000  10.366000  0.000000
H  12.635000  13.835000  0.000000
H  10.108000  -0.010000  0.000000
H  7.583000  -0.012000  0.000000
H  5.058000  -0.011000  0.000000
H  12.631000  -0.009000  0.000000
C  16.391568  10.553000  -0.304118
C  16.391568  12.029000  -0.303641
C  17.670751  12.724286  -0.134129
C  17.670751  8.371221  -0.030982
C  17.670751  9.823667  -0.223159
C  18.905140  10.553000  -0.152070
C  18.905140  12.029000  -0.084991
C  17.670751  4.000000  -0.228439
C  17.670751  5.453610  -0.024717
C  18.905140  6.197900  0.067362
C  18.905140  7.631998  0.060735
C  20.154752  8.371221  0.169051
C  20.154752  9.823667  0.124148
C  18.905140  3.272000  -0.129950
C  20.154752  4.000000  0.118047
C  20.154752  5.453610  0.174417
C  21.411000  6.197900  0.283900
C  21.411000  7.631998  0.288876
C  17.670751  1.101000  -0.136131
C  18.905140  1.797813  -0.083092
C  5.067250  5.453610  -0.780739
C  5.067250  4.000000  -0.514344
C  3.815571  3.272000  -0.306524
C  3.815571  1.797813  -0.139696
C  11.361143  3.272000  -0.476118
C  2.546438  1.101000  -0.219919
C  3.815571  7.631998  -0.663766
C  3.815571  6.197900  -0.668814
C  11.361143  7.631998  -0.803497
C  2.546438  5.453610  -0.356487
C  11.361143  6.197900  -0.819525
C  2.546438  4.000000  -0.316080
C  10.098375  5.453610  -0.761950
C  16.391568  3.272000  -0.328826
C  1.302141  3.272000  -0.350826
C  10.098375  4.000000  -0.585870
C  16.391568  1.797813  -0.320611
C  1.302141  1.797813  -0.329588
C  8.830644  3.272000  -0.533559
C  15.145562  1.101000  -0.222884
C  0.021251  1.101000  -0.160746
C  11.361143  12.029000  -0.063484
C  2.546438  9.823667  -0.266685
C  11.361143  10.553000  -0.411901
C  2.546438  8.371221  -0.343947
C  10.098375  9.823667  -0.524003
C  16.391568  7.631998  -0.068808
C  1.302141  7.631998  -0.093049
C  10.098375  8.371221  -0.721783
C  16.391568  6.197900  -0.068061
C  1.302141  6.197900  -0.110516
C  15.145562  5.453610  -0.340401
C  0.021251  5.453610  -0.079986
C  8.830644  7.631998  -0.757241
C  8.830644  6.197900  -0.779768
C  15.145562  4.000000  -0.282223
C  0.021251  4.000000  -0.263751
C  7.582124  5.453610  -0.767145
C  13.876357  3.272000  -0.292454
C  -1.214289  3.272000  -0.172987
C  7.582124  4.000000  -0.595800
C  13.876357  1.797813  -0.139399
C  -1.214289  1.797813  -0.097952
C  10.098375  12.724286  0.013268
C  1.302141  10.553000  -0.315999
C  8.830644  12.029000  -0.109549
C  15.145562  9.823667  -0.266001
C  0.021251  9.823667  -0.239333
C  8.830644  10.553000  -0.440276
C  15.145562  8.371221  -0.324230
C  0.021251  8.371221  -0.056316
C  7.582124  9.823667  -0.530084
C  13.876357  7.631998  -0.653638
C  -1.214289  7.631998  -0.011341
C  7.582124  8.371221  -0.718040
C  13.876357  6.197900  -0.658721
C  -1.214289  6.197900  -0.026515
C  6.330357  7.631998  -0.815457
C  12.623562  5.453610  -0.764943
C  -2.463372  5.453610  0.086116
C  6.330357  6.197900  -0.828465
C  12.623562  4.000000  -0.503530
C  -2.463372  4.000000  0.069675
C  7.582124  12.724286  0.026500
C  13.876357  10.553000  -0.245470
C  -1.214289  10.553000  -0.173686
C  6.330357  12.029000  -0.033992
C  12.623562  9.823667  -0.475538
C  -2.463372  9.823667  0.049245
C  6.330357  10.553000  -0.391422
C  12.623562  8.371221  -0.739523
C  -2.463372  8.371221  0.096024
C  5.067250  9.823667  -0.458050
C  -3.721000  7.631998  0.166102
C  5.067250  8.371221  -0.750038
C  -3.721000  6.197900  0.162162
C  5.067250  12.724286  0.020440
C  3.815571  12.029000  -0.044609
C  3.815571  10.553000  -0.232460
C  2.546438  12.724286  -0.149891
C  1.302141  12.029000  -0.282111
C  6.330357  3.272000  -0.478987
C  15.145562  12.724286  -0.179179
C  0.021251  12.724286  -0.130535
C  13.876357  12.029000  -0.076305
C  -1.214289  12.029000  -0.102330
C  12.623562  12.724286  -0.012956
C  6.330357  1.797813  -0.160539
C  8.830644  1.797813  -0.240288
C  11.361143  1.797813  -0.169109
C  10.098375  1.101000  -0.136052
C  7.582124  1.101000  -0.132612
C  5.067250  1.101000  -0.103891
C  12.623562  1.101000  -0.124200
