142
frame	616
H  17.693000  13.826000  0.000000
H  19.858000  12.564000  0.000000
H  21.106000  10.363000  0.000000
H  22.366000  5.656000  0.000000
H  22.367000  8.165000  0.000000
H  19.852000  1.261000  0.000000
H  17.690000  -0.000000  0.000000
H  21.104000  3.459000  0.000000
H  2.530000  -0.005000  0.000000
H  15.160000  -0.002000  0.000000
H  0.000000  -0.000000  0.000000
H  -2.163000  1.262000  0.000000
H  -3.415000  3.463000  0.000000
H  -4.677000  8.168000  0.000000
H  -4.678000  5.662000  0.000000
H  -2.159000  12.565000  0.000000
H  10.109000  13.837000  0.000000
H  7.585000  13.838000  0.000000
H  5.062000  13.833000  0.000000
H  2.535000  13.828000  0.000000
H  15.163000  13.830000  0.000000
H  0.007000  13.825000  0.000000
H  -3.412000  10.366000  0.000000
H  12.635000  13.835000  0.000000
H  10.108000  -0.010000  0.000000
H  7.583000  -0.012000  0.000000
H  5.058000  -0.011000  0.000000
H  12.631000  -0.009000  0.000000
C  16.391568  10.553000  0.174450
C  16.391568  12.029000  0.000538
C  17.670751  12.724286  -0.104158
C  17.670751  8.371221  0.378959
C  17.670751  9.823667  0.188198
C  18.905140  10.553000  -0.063975
C  18.905140  12.029000  -0.082058
C  17.670751  4.000000  0.190625
C  17.670751  5.453610  0.365510
C  18.905140  6.197900  0.298646
C  18.905140  7.631998  0.281973
C  20.154752  8.371221  0.166414
C  20.154752  9.823667  0.014654
C  18.905140  3.272000  -0.063707
C  20.154752  4.000000  0.032539
C  20.154752  5.453610  0.183131
C  21.411000  6.197900  0.255085
C  21.411000  7.631998  0.239819
C  17.670751  1.101000  -0.089920
C  18.905140  1.797813  -0.080464
C  5.067250  5.453610  0.074737
C  5.067250  4.000000  -0.026900
C  3.815571  3.272000  0.020879
C  3.815571  1.797813  0.028345
C  11.361143  3.272000  -0.122975
C  2.546438  1.101000  -0.040386
C  3.815571  7.631998  0.195753
C  3.815571  6.197900  0.191669
C  11.361143  7.631998  -0.055442
C  2.546438  5.453610  0.353082
C  11.361143  6.197900  -0.066914
C  2.546438  4.000000  0.223811
C  10.098375  5.453610  -0.288930
C  16.391568  3.272000  0.175661
C  1.302141  3.272000  0.153838
C  10.098375  4.000000  -0.261621
C  16.391568  1.797813  -0.006624
C  1.302141  1.797813  -0.014553
C  8.830644  3.272000  -0.263329
C  15.145562  1.101000  -0.040827
C  0.021251  1.101000  -0.117184
C  11.361143  12.029000  -0.052537
C  2.546438  9.823667  0.257592
C  11.361143  10.553000  -0.053413
C  2.546438  8.371221  0.369242
C  10.098375  9.823667  -0.219439
C  16.391568  7.631998  0.485887
C  1.302141  7.631998  0.457975
C  10.098375  8.371221  -0.280893
C  16.391568  6.197900  0.478475
C  1.302141  6.197900  0.457116
C  15.145562  5.453610  0.355147
C  0.021251  5.453610  0.334534
C  8.830644  7.631998  -0.446981
C  8.830644  6.197900  -0.445070
C  15.145562  4.000000  0.219252
C  0.021251  4.000000  0.160870
C  7.582124  5.453610  -0.295466
C  13.876357  3.272000  0.013501
C  -1.214289  3.272000  -0.095252
C  7.582124  4.000000  -0.269474
C  13.876357  1.797813  0.013969
C  -1.214289  1.797813  -0.100296
C  10.098375  12.724286  -0.121279
C  1.302141  10.553000  0.183543
C  8.830644  12.029000  -0.208558
C  15.145562  9.823667  0.235434
C  0.021251  9.823667  0.180430
C  8.830644  10.553000  -0.198504
C  15.145562  8.371221  0.370394
C  0.021251  8.371221  0.356864
C  7.582124  9.823667  -0.210254
C  13.876357  7.631998  0.184934
C  -1.214289  7.631998  0.262199
C  7.582124  8.371221  -0.269522
C  13.876357  6.197900  0.178706
C  -1.214289  6.197900  0.244290
C  6.330357  7.631998  -0.029896
C  12.623562  5.453610  0.052459
C  -2.463372  5.453610  0.132761
C  6.330357  6.197900  -0.035031
C  12.623562  4.000000  -0.028429
C  -2.463372  4.000000  -0.021638
C  7.582124  12.724286  -0.099601
C  13.876357  10.553000  0.056069
C  -1.214289  10.553000  -0.092740
C  6.330357  12.029000  -0.025513
C  12.623562  9.823667  0.022663
C  -2.463372  9.823667  -0.032794
C  6.330357  10.553000  -0.046758
C  12.623562  8.371221  0.072495
C  -2.463372  8.371221  0.127753
C  5.067250  9.823667  0.022178
C  -3.721000  7.631998  0.147934
C  5.067250  8.371221  0.102182
C  -3.721000  6.197900  0.147186
C  5.067250  12.724286  0.118883
C  3.815571  12.029000  0.102046
C  3.815571  10.553000  0.085415
C  2.546438  12.724286  0.020648
C  1.302141  12.029000  0.021842
C  6.330357  3.272000  -0.114555
C  15.145562  12.724286  -0.011864
C  0.021251  12.724286  -0.083003
C  13.876357  12.029000  0.063450
C  -1.214289  12.029000  -0.091590
C  12.623562  12.724286  0.077406
C  6.330357  1.797813  -0.137953
C  8.830644  1.797813  -0.318990
C  11.361143  1.797813  -0.134013
C  10.098375  1.101000  -0.246733
C  7.582124  1.101000  -0.230139
C  5.067250  1.101000  0.015655
C  12.623562  1.101000  0.014064
