142
frame	599
H  17.693000  13.826000  0.000000
H  19.858000  12.564000  0.000000
H  21.106000  10.363000  0.000000
H  22.366000  5.656000  0.000000
H  22.367000  8.165000  0.000000
H  19.852000  1.261000  0.000000
H  17.690000  -0.000000  0.000000
H  21.104000  3.459000  0.000000
H  2.530000  -0.005000  0.000000
H  15.160000  -0.002000  0.000000
H  0.000000  -0.000000  0.000000
H  -2.163000  1.262000  0.000000
H  -3.415000  3.463000  0.000000
H  -4.677000  8.168000  0.000000
H  -4.678000  5.662000  0.000000
H  -2.159000  12.565000  0.000000
H  10.109000  13.837000  0.000000
H  7.585000  13.838000  0.000000
H  5.062000  13.833000  0.000000
H  2.535000  13.828000  0.000000
H  15.163000  13.830000  0.000000
H  0.007000  13.825000  0.000000
H  -3.412000  10.366000  0.000000
H  12.635000  13.835000  0.000000
H  10.108000  -0.010000  0.000000
H  7.583000  -0.012000  0.000000
H  5.058000  -0.011000  0.000000
H  12.631000  -0.009000  0.000000
C  16.391568  10.553000  0.131538
C  16.391568  12.029000  0.021873
C  17.670751  12.724286  0.091213
C  17.670751  8.371221  0.228267
C  17.670751  9.823667  0.062374
C  18.905140  10.553000  -0.014537
C  18.905140  12.029000  0.015284
C  17.670751  4.000000  0.057076
C  17.670751  5.453610  0.211725
C  18.905140  6.197900  0.259008
C  18.905140  7.631998  0.274423
C  20.154752  8.371221  0.124602
C  20.154752  9.823667  -0.013694
C  18.905140  3.272000  0.004034
C  20.154752  4.000000  0.005082
C  20.154752  5.453610  0.128835
C  21.411000  6.197900  0.132396
C  21.411000  7.631998  0.128412
C  17.670751  1.101000  0.082076
C  18.905140  1.797813  0.026731
C  5.067250  5.453610  0.090047
C  5.067250  4.000000  -0.057372
C  3.815571  3.272000  0.028166
C  3.815571  1.797813  -0.130059
C  11.361143  3.272000  -0.130323
C  2.546438  1.101000  -0.103848
C  3.815571  7.631998  0.252387
C  3.815571  6.197900  0.240526
C  11.361143  7.631998  0.035736
C  2.546438  5.453610  0.253595
C  11.361143  6.197900  0.030628
C  2.546438  4.000000  0.209136
C  10.098375  5.453610  -0.344812
C  16.391568  3.272000  0.129131
C  1.302141  3.272000  0.110618
C  10.098375  4.000000  -0.237178
C  16.391568  1.797813  0.019579
C  1.302141  1.797813  -0.001920
C  8.830644  3.272000  -0.356602
C  15.145562  1.101000  -0.093985
C  0.021251  1.101000  0.091078
C  11.361143  12.029000  -0.070335
C  2.546438  9.823667  0.239970
C  11.361143  10.553000  -0.071461
C  2.546438  8.371221  0.257783
C  10.098375  9.823667  -0.186541
C  16.391568  7.631998  0.252427
C  1.302141  7.631998  0.232786
C  10.098375  8.371221  -0.336168
C  16.391568  6.197900  0.247223
C  1.302141  6.197900  0.217670
C  15.145562  5.453610  0.253641
C  0.021251  5.453610  0.181060
C  8.830644  7.631998  -0.666781
C  8.830644  6.197900  -0.683772
C  15.145562  4.000000  0.213735
C  0.021251  4.000000  0.027166
C  7.582124  5.453610  -0.328309
C  13.876357  3.272000  0.034007
C  -1.214289  3.272000  -0.045346
C  7.582124  4.000000  -0.238028
C  13.876357  1.797813  -0.125091
C  -1.214289  1.797813  -0.005106
C  10.098375  12.724286  -0.162851
C  1.302141  10.553000  0.137159
C  8.830644  12.029000  -0.276356
C  15.145562  9.823667  0.236447
C  0.021251  9.823667  0.039202
C  8.830644  10.553000  -0.288321
C  15.145562  8.371221  0.260529
C  0.021251  8.371221  0.196694
C  7.582124  9.823667  -0.184433
C  13.876357  7.631998  0.235010
C  -1.214289  7.631998  0.226562
C  7.582124  8.371221  -0.302405
C  13.876357  6.197900  0.225798
C  -1.214289  6.197900  0.233086
C  6.330357  7.631998  0.051358
C  12.623562  5.453610  0.081564
C  -2.463372  5.453610  0.076027
C  6.330357  6.197900  0.035151
C  12.623562  4.000000  -0.068394
C  -2.463372  4.000000  -0.037050
C  7.582124  12.724286  -0.129636
C  13.876357  10.553000  0.070151
C  -1.214289  10.553000  -0.033699
C  6.330357  12.029000  -0.037496
C  12.623562  9.823667  -0.020602
C  -2.463372  9.823667  -0.046604
C  6.330357  10.553000  -0.076847
C  12.623562  8.371221  0.095803
C  -2.463372  8.371221  0.079402
C  5.067250  9.823667  -0.000417
C  -3.721000  7.631998  0.039802
C  5.067250  8.371221  0.107432
C  -3.721000  6.197900  0.048067
C  5.067250  12.724286  0.023814
C  3.815571  12.029000  -0.059750
C  3.815571  10.553000  0.079582
C  2.546438  12.724286  -0.038005
C  1.302141  12.029000  0.039287
C  6.330357  3.272000  -0.133860
C  15.145562  12.724286  -0.067368
C  0.021251  12.724286  0.119025
C  13.876357  12.029000  -0.073809
C  -1.214289  12.029000  0.020536
C  12.623562  12.724286  -0.008713
C  6.330357  1.797813  -0.134440
C  8.830644  1.797813  -0.380858
C  11.361143  1.797813  -0.144267
C  10.098375  1.101000  -0.269376
C  7.582124  1.101000  -0.260081
C  5.067250  1.101000  -0.080091
C  12.623562  1.101000  -0.084779
