142
frame	663
H  17.693000  13.826000  0.000000
H  19.858000  12.564000  0.000000
H  21.106000  10.363000  0.000000
H  22.366000  5.656000  0.000000
H  22.367000  8.165000  0.000000
H  19.852000  1.261000  0.000000
H  17.690000  -0.000000  0.000000
H  21.104000  3.459000  0.000000
H  2.530000  -0.005000  0.000000
H  15.160000  -0.002000  0.000000
H  0.000000  -0.000000  0.000000
H  -2.163000  1.262000  0.000000
H  -3.415000  3.463000  0.000000
H  -4.677000  8.168000  0.000000
H  -4.678000  5.662000  0.000000
H  -2.159000  12.565000  0.000000
H  10.109000  13.837000  0.000000
H  7.585000  13.838000  0.000000
H  5.062000  13.833000  0.000000
H  2.535000  13.828000  0.000000
H  15.163000  13.830000  0.000000
H  0.007000  13.825000  0.000000
H  -3.412000  10.366000  0.000000
H  12.635000  13.835000  0.000000
H  10.108000  -0.010000  0.000000
H  7.583000  -0.012000  0.000000
H  5.058000  -0.011000  0.000000
H  12.631000  -0.009000  0.000000
C  16.391568  10.553000  0.217239
C  16.391568  12.029000  0.124459
C  17.670751  12.724286  0.133637
C  17.670751  8.371221  0.449221
C  17.670751  9.823667  0.290488
C  18.905140  10.553000  0.258427
C  18.905140  12.029000  0.217645
C  17.670751  4.000000  0.308711
C  17.670751  5.453610  0.454010
C  18.905140  6.197900  0.621255
C  18.905140  7.631998  0.622578
C  20.154752  8.371221  0.489797
C  20.154752  9.823667  0.352053
C  18.905140  3.272000  0.289065
C  20.154752  4.000000  0.379567
C  20.154752  5.453610  0.490022
C  21.411000  6.197900  0.309028
C  21.411000  7.631998  0.309769
C  17.670751  1.101000  0.125526
C  18.905140  1.797813  0.229829
C  5.067250  5.453610  -0.040620
C  5.067250  4.000000  0.024496
C  3.815571  3.272000  0.200669
C  3.815571  1.797813  0.124174
C  11.361143  3.272000  -0.099937
C  2.546438  1.101000  0.010523
C  3.815571  7.631998  0.232078
C  3.815571  6.197900  0.223423
C  11.361143  7.631998  -0.102260
C  2.546438  5.453610  0.453405
C  11.361143  6.197900  -0.110902
C  2.546438  4.000000  0.361450
C  10.098375  5.453610  -0.115795
C  16.391568  3.272000  0.200816
C  1.302141  3.272000  0.194808
C  10.098375  4.000000  -0.114208
C  16.391568  1.797813  0.095536
C  1.302141  1.797813  0.104822
C  8.830644  3.272000  -0.116421
C  15.145562  1.101000  0.008307
C  0.021251  1.101000  0.135681
C  11.361143  12.029000  0.052700
C  2.546438  9.823667  0.405113
C  11.361143  10.553000  -0.034852
C  2.546438  8.371221  0.480546
C  10.098375  9.823667  -0.059866
C  16.391568  7.631998  0.436545
C  1.302141  7.631998  0.452537
C  10.098375  8.371221  -0.085695
C  16.391568  6.197900  0.439842
C  1.302141  6.197900  0.451286
C  15.145562  5.453610  0.453084
C  0.021251  5.453610  0.443278
C  8.830644  7.631998  -0.072956
C  8.830644  6.197900  -0.085078
C  15.145562  4.000000  0.355986
C  0.021251  4.000000  0.284450
C  7.582124  5.453610  -0.096034
C  13.876357  3.272000  0.181143
C  -1.214289  3.272000  0.231078
C  7.582124  4.000000  -0.095282
C  13.876357  1.797813  0.102066
C  -1.214289  1.797813  0.200835
C  10.098375  12.724286  0.056813
C  1.302141  10.553000  0.224613
C  8.830644  12.029000  0.042060
C  15.145562  9.823667  0.363889
C  0.021251  9.823667  0.288493
C  8.830644  10.553000  -0.029771
C  15.145562  8.371221  0.450072
C  0.021251  8.371221  0.445278
C  7.582124  9.823667  -0.035092
C  13.876357  7.631998  0.213273
C  -1.214289  7.631998  0.563074
C  7.582124  8.371221  -0.063384
C  13.876357  6.197900  0.217808
C  -1.214289  6.197900  0.557015
C  6.330357  7.631998  -0.087124
C  12.623562  5.453610  -0.058749
C  -2.463372  5.453610  0.419602
C  6.330357  6.197900  -0.094372
C  12.623562  4.000000  0.008766
C  -2.463372  4.000000  0.302352
C  7.582124  12.724286  0.078935
C  13.876357  10.553000  0.216520
C  -1.214289  10.553000  0.231288
C  6.330357  12.029000  0.082648
C  12.623562  9.823667  0.029189
C  -2.463372  9.823667  0.292729
C  6.330357  10.553000  -0.001484
C  12.623562  8.371221  -0.043322
C  -2.463372  8.371221  0.401145
C  5.067250  9.823667  0.073940
C  -3.721000  7.631998  0.179150
C  5.067250  8.371221  -0.008761
C  -3.721000  6.197900  0.178348
C  5.067250  12.724286  0.129147
C  3.815571  12.029000  0.217185
C  3.815571  10.553000  0.275956
C  2.546438  12.724286  0.093652
C  1.302141  12.029000  0.149958
C  6.330357  3.272000  -0.070270
C  15.145562  12.724286  0.050631
C  0.021251  12.724286  0.156707
C  13.876357  12.029000  0.166171
C  -1.214289  12.029000  0.210434
C  12.623562  12.724286  0.082639
C  6.330357  1.797813  -0.041626
C  8.830644  1.797813  -0.078318
C  11.361143  1.797813  -0.042645
C  10.098375  1.101000  -0.074211
C  7.582124  1.101000  -0.067955
C  5.067250  1.101000  0.002695
C  12.623562  1.101000  -0.017541
