142
frame	365
H  17.693000  13.826000  0.000000
H  19.858000  12.564000  0.000000
H  21.106000  10.363000  0.000000
H  22.366000  5.656000  0.000000
H  22.367000  8.165000  0.000000
H  19.852000  1.261000  0.000000
H  17.690000  -0.000000  0.000000
H  21.104000  3.459000  0.000000
H  2.530000  -0.005000  0.000000
H  15.160000  -0.002000  0.000000
H  0.000000  -0.000000  0.000000
H  -2.163000  1.262000  0.000000
H  -3.415000  3.463000  0.000000
H  -4.677000  8.168000  0.000000
H  -4.678000  5.662000  0.000000
H  -2.159000  12.565000  0.000000
H  10.109000  13.837000  0.000000
H  7.585000  13.838000  0.000000
H  5.062000  13.833000  0.000000
H  2.535000  13.828000  0.000000
H  15.163000  13.830000  0.000000
H  0.007000  13.825000  0.000000
H  -3.412000  10.366000  0.000000
H  12.635000  13.835000  0.000000
H  10.108000  -0.010000  0.000000
H  7.583000  -0.012000  0.000000
H  5.058000  -0.011000  0.000000
H  12.631000  -0.009000  0.000000
C  16.391568  10.553000  -0.266842
C  16.391568  12.029000  -0.237483
C  17.670751  12.724286  -0.211887
C  17.670751  8.371221  -0.527336
C  17.670751  9.823667  -0.312040
C  18.905140  10.553000  -0.242817
C  18.905140  12.029000  -0.199133
C  17.670751  4.000000  -0.314311
C  17.670751  5.453610  -0.539459
C  18.905140  6.197900  -0.627023
C  18.905140  7.631998  -0.628892
C  20.154752  8.371221  -0.298838
C  20.154752  9.823667  -0.121086
C  18.905140  3.272000  -0.244914
C  20.154752  4.000000  -0.107706
C  20.154752  5.453610  -0.298859
C  21.411000  6.197900  -0.024722
C  21.411000  7.631998  -0.036832
C  17.670751  1.101000  -0.210450
C  18.905140  1.797813  -0.184872
C  5.067250  5.453610  -0.595201
C  5.067250  4.000000  -0.640692
C  3.815571  3.272000  -0.402982
C  3.815571  1.797813  -0.174959
C  11.361143  3.272000  -0.491253
C  2.546438  1.101000  -0.160730
C  3.815571  7.631998  -0.492747
C  3.815571  6.197900  -0.510353
C  11.361143  7.631998  -0.457562
C  2.546438  5.453610  -0.564999
C  11.361143  6.197900  -0.469679
C  2.546438  4.000000  -0.447709
C  10.098375  5.453610  -0.234510
C  16.391568  3.272000  -0.284230
C  1.302141  3.272000  -0.335559
C  10.098375  4.000000  -0.478508
C  16.391568  1.797813  -0.249499
C  1.302141  1.797813  -0.294011
C  8.830644  3.272000  -0.527756
C  15.145562  1.101000  -0.130802
C  0.021251  1.101000  -0.225764
C  11.361143  12.029000  -0.179628
C  2.546438  9.823667  -0.404103
C  11.361143  10.553000  -0.420343
C  2.546438  8.371221  -0.526661
C  10.098375  9.823667  -0.405787
C  16.391568  7.631998  -0.567580
C  1.302141  7.631998  -0.633173
C  10.098375  8.371221  -0.216369
C  16.391568  6.197900  -0.587051
C  1.302141  6.197900  -0.641337
C  15.145562  5.453610  -0.513038
C  0.021251  5.453610  -0.613507
C  8.830644  7.631998  -0.057647
C  8.830644  6.197900  -0.076008
C  15.145562  4.000000  -0.400657
C  0.021251  4.000000  -0.385546
C  7.582124  5.453610  -0.240300
C  13.876357  3.272000  -0.387039
C  -1.214289  3.272000  -0.310857
C  7.582124  4.000000  -0.496973
C  13.876357  1.797813  -0.173695
C  -1.214289  1.797813  -0.221452
C  10.098375  12.724286  -0.215020
C  1.302141  10.553000  -0.299497
C  8.830644  12.029000  -0.419504
C  15.145562  9.823667  -0.372925
C  0.021251  9.823667  -0.365613
C  8.830644  10.553000  -0.432315
C  15.145562  8.371221  -0.500852
C  0.021251  8.371221  -0.603791
C  7.582124  9.823667  -0.407272
C  13.876357  7.631998  -0.481115
C  -1.214289  7.631998  -0.707786
C  7.582124  8.371221  -0.215080
C  13.876357  6.197900  -0.488106
C  -1.214289  6.197900  -0.702053
C  6.330357  7.631998  -0.472721
C  12.623562  5.453610  -0.574771
C  -2.463372  5.453610  -0.394691
C  6.330357  6.197900  -0.490490
C  12.623562  4.000000  -0.637571
C  -2.463372  4.000000  -0.192059
C  7.582124  12.724286  -0.196612
C  13.876357  10.553000  -0.339592
C  -1.214289  10.553000  -0.303705
C  6.330357  12.029000  -0.153940
C  12.623562  9.823667  -0.574193
C  -2.463372  9.823667  -0.186503
C  6.330357  10.553000  -0.416475
C  12.623562  8.371221  -0.559265
C  -2.463372  8.371221  -0.403274
C  5.067250  9.823667  -0.586322
C  -3.721000  7.631998  -0.148242
C  5.067250  8.371221  -0.572724
C  -3.721000  6.197900  -0.152269
C  5.067250  12.724286  0.053466
C  3.815571  12.029000  -0.086654
C  3.815571  10.553000  -0.343087
C  2.546438  12.724286  -0.074696
C  1.302141  12.029000  -0.246055
C  6.330357  3.272000  -0.503441
C  15.145562  12.724286  -0.089393
C  0.021251  12.724286  -0.215764
C  13.876357  12.029000  -0.093359
C  -1.214289  12.029000  -0.231561
C  12.623562  12.724286  0.018592
C  6.330357  1.797813  -0.280747
C  8.830644  1.797813  -0.557264
C  11.361143  1.797813  -0.287541
C  10.098375  1.101000  -0.348925
C  7.582124  1.101000  -0.337378
C  5.067250  1.101000  -0.065589
C  12.623562  1.101000  -0.068916
