142
frame	776
H  17.693000  13.826000  0.000000
H  19.858000  12.564000  0.000000
H  21.106000  10.363000  0.000000
H  22.366000  5.656000  0.000000
H  22.367000  8.165000  0.000000
H  19.852000  1.261000  0.000000
H  17.690000  -0.000000  0.000000
H  21.104000  3.459000  0.000000
H  2.530000  -0.005000  0.000000
H  15.160000  -0.002000  0.000000
H  0.000000  -0.000000  0.000000
H  -2.163000  1.262000  0.000000
H  -3.415000  3.463000  0.000000
H  -4.677000  8.168000  0.000000
H  -4.678000  5.662000  0.000000
H  -2.159000  12.565000  0.000000
H  10.109000  13.837000  0.000000
H  7.585000  13.838000  0.000000
H  5.062000  13.833000  0.000000
H  2.535000  13.828000  0.000000
H  15.163000  13.830000  0.000000
H  0.007000  13.825000  0.000000
H  -3.412000  10.366000  0.000000
H  12.635000  13.835000  0.000000
H  10.108000  -0.010000  0.000000
H  7.583000  -0.012000  0.000000
H  5.058000  -0.011000  0.000000
H  12.631000  -0.009000  0.000000
C  16.391568  10.553000  0.378047
C  16.391568  12.029000  0.179119
C  17.670751  12.724286  0.002445
C  17.670751  8.371221  0.598120
C  17.670751  9.823667  0.461009
C  18.905140  10.553000  0.110147
C  18.905140  12.029000  -0.084205
C  17.670751  4.000000  0.455896
C  17.670751  5.453610  0.588182
C  18.905140  6.197900  0.412934
C  18.905140  7.631998  0.395887
C  20.154752  8.371221  0.314320
C  20.154752  9.823667  0.111879
C  18.905140  3.272000  0.116303
C  20.154752  4.000000  0.122634
C  20.154752  5.453610  0.316267
C  21.411000  6.197900  0.419083
C  21.411000  7.631998  0.415066
C  17.670751  1.101000  0.015537
C  18.905140  1.797813  -0.072044
C  5.067250  5.453610  0.367661
C  5.067250  4.000000  0.334347
C  3.815571  3.272000  0.265094
C  3.815571  1.797813  0.184562
C  11.361143  3.272000  0.300222
C  2.546438  1.101000  0.173046
C  3.815571  7.631998  0.464763
C  3.815571  6.197900  0.455478
C  11.361143  7.631998  0.306929
C  2.546438  5.453610  0.487912
C  11.361143  6.197900  0.288530
C  2.546438  4.000000  0.354190
C  10.098375  5.453610  0.399379
C  16.391568  3.272000  0.355778
C  1.302141  3.272000  0.369212
C  10.098375  4.000000  0.262908
C  16.391568  1.797813  0.149809
C  1.302141  1.797813  0.163198
C  8.830644  3.272000  0.172808
C  15.145562  1.101000  0.166238
C  0.021251  1.101000  0.013591
C  11.361143  12.029000  0.139155
C  2.546438  9.823667  0.406093
C  11.361143  10.553000  0.371390
C  2.546438  8.371221  0.518376
C  10.098375  9.823667  0.349366
C  16.391568  7.631998  0.697557
C  1.302141  7.631998  0.713552
C  10.098375  8.371221  0.440556
C  16.391568  6.197900  0.703403
C  1.302141  6.197900  0.708190
C  15.145562  5.453610  0.472174
C  0.021251  5.453610  0.578608
C  8.830644  7.631998  0.477017
C  8.830644  6.197900  0.474899
C  15.145562  4.000000  0.338576
C  0.021251  4.000000  0.448223
C  7.582124  5.453610  0.429180
C  13.876357  3.272000  0.244487
C  -1.214289  3.272000  0.069864
C  7.582124  4.000000  0.302160
C  13.876357  1.797813  0.166807
C  -1.214289  1.797813  -0.107762
C  10.098375  12.724286  0.068123
C  1.302141  10.553000  0.412536
C  8.830644  12.029000  0.105534
C  15.145562  9.823667  0.364145
C  0.021251  9.823667  0.476290
C  8.830644  10.553000  0.277221
C  15.145562  8.371221  0.478755
C  0.021251  8.371221  0.595498
C  7.582124  9.823667  0.376802
C  13.876357  7.631998  0.419899
C  -1.214289  7.631998  0.382461
C  7.582124  8.371221  0.452828
C  13.876357  6.197900  0.418564
C  -1.214289  6.197900  0.378396
C  6.330357  7.631998  0.352882
C  12.623562  5.453610  0.333808
C  -2.463372  5.453610  0.254947
C  6.330357  6.197900  0.339569
C  12.623562  4.000000  0.314713
C  -2.463372  4.000000  0.060381
C  7.582124  12.724286  0.088969
C  13.876357  10.553000  0.287473
C  -1.214289  10.553000  0.085338
C  6.330357  12.029000  0.163065
C  12.623562  9.823667  0.361260
C  -2.463372  9.823667  0.055597
C  6.330357  10.553000  0.411285
C  12.623562  8.371221  0.351401
C  -2.463372  8.371221  0.261286
C  5.067250  9.823667  0.391989
C  -3.721000  7.631998  0.314348
C  5.067250  8.371221  0.406424
C  -3.721000  6.197900  0.327214
C  5.067250  12.724286  0.140372
C  3.815571  12.029000  0.283573
C  3.815571  10.553000  0.338087
C  2.546438  12.724286  0.256812
C  1.302141  12.029000  0.206172
C  6.330357  3.272000  0.313123
C  15.145562  12.724286  0.218665
C  0.021251  12.724286  0.043966
C  13.876357  12.029000  0.232850
C  -1.214289  12.029000  -0.116177
C  12.623562  12.724286  0.097589
C  6.330357  1.797813  0.033910
C  8.830644  1.797813  -0.029375
C  11.361143  1.797813  0.032341
C  10.098375  1.101000  -0.067818
C  7.582124  1.101000  -0.057082
C  5.067250  1.101000  0.019224
C  12.623562  1.101000  0.003882
