142
frame	87
H  17.693000  13.826000  0.000000
H  19.858000  12.564000  0.000000
H  21.106000  10.363000  0.000000
H  22.366000  5.656000  0.000000
H  22.367000  8.165000  0.000000
H  19.852000  1.261000  0.000000
H  17.690000  -0.000000  0.000000
H  21.104000  3.459000  0.000000
H  2.530000  -0.005000  0.000000
H  15.160000  -0.002000  0.000000
H  0.000000  -0.000000  0.000000
H  -2.163000  1.262000  0.000000
H  -3.415000  3.463000  0.000000
H  -4.677000  8.168000  0.000000
H  -4.678000  5.662000  0.000000
H  -2.159000  12.565000  0.000000
H  10.109000  13.837000  0.000000
H  7.585000  13.838000  0.000000
H  5.062000  13.833000  0.000000
H  2.535000  13.828000  0.000000
H  15.163000  13.830000  0.000000
H  0.007000  13.825000  0.000000
H  -3.412000  10.366000  0.000000
H  12.635000  13.835000  0.000000
H  10.108000  -0.010000  0.000000
H  7.583000  -0.012000  0.000000
H  5.058000  -0.011000  0.000000
H  12.631000  -0.009000  0.000000
C  16.391568  10.553000  -0.014141
C  16.391568  12.029000  -0.061099
C  17.670751  12.724286  0.017355
C  17.670751  8.371221  0.022005
C  17.670751  9.823667  -0.013714
C  18.905140  10.553000  0.075770
C  18.905140  12.029000  0.081850
C  17.670751  4.000000  -0.014687
C  17.670751  5.453610  0.025621
C  18.905140  6.197900  0.066287
C  18.905140  7.631998  0.062513
C  20.154752  8.371221  0.143684
C  20.154752  9.823667  0.146351
C  18.905140  3.272000  0.078290
C  20.154752  4.000000  0.158141
C  20.154752  5.453610  0.149226
C  21.411000  6.197900  0.216714
C  21.411000  7.631998  0.212534
C  17.670751  1.101000  0.006820
C  18.905140  1.797813  0.090175
C  5.067250  5.453610  -0.291392
C  5.067250  4.000000  -0.146652
C  3.815571  3.272000  0.147984
C  3.815571  1.797813  0.099836
C  11.361143  3.272000  -0.232574
C  2.546438  1.101000  -0.053170
C  3.815571  7.631998  0.018125
C  3.815571  6.197900  0.004129
C  11.361143  7.631998  -0.549599
C  2.546438  5.453610  0.216716
C  11.361143  6.197900  -0.579776
C  2.546438  4.000000  0.192350
C  10.098375  5.453610  -0.513307
C  16.391568  3.272000  -0.018594
C  1.302141  3.272000  -0.010319
C  10.098375  4.000000  -0.485851
C  16.391568  1.797813  -0.084701
C  1.302141  1.797813  -0.080508
C  8.830644  3.272000  -0.425899
C  15.145562  1.101000  -0.065532
C  0.021251  1.101000  0.004656
C  11.361143  12.029000  0.111877
C  2.546438  9.823667  0.227143
C  11.361143  10.553000  -0.165768
C  2.546438  8.371221  0.230862
C  10.098375  9.823667  -0.429864
C  16.391568  7.631998  0.131437
C  1.302141  7.631998  0.155404
C  10.098375  8.371221  -0.508891
C  16.391568  6.197900  0.123431
C  1.302141  6.197900  0.150175
C  15.145562  5.453610  0.178594
C  0.021251  5.453610  0.016395
C  8.830644  7.631998  -0.567165
C  8.830644  6.197900  -0.590718
C  15.145562  4.000000  0.158312
C  0.021251  4.000000  -0.026030
C  7.582124  5.453610  -0.515228
C  13.876357  3.272000  0.116180
C  -1.214289  3.272000  0.053170
C  7.582124  4.000000  -0.484781
C  13.876357  1.797813  0.075838
C  -1.214289  1.797813  0.073323
C  10.098375  12.724286  0.135090
C  1.302141  10.553000  0.025989
C  8.830644  12.029000  0.022206
C  15.145562  9.823667  0.178116
C  0.021251  9.823667  -0.008991
C  8.830644  10.553000  -0.354451
C  15.145562  8.371221  0.199047
C  0.021251  8.371221  0.024977
C  7.582124  9.823667  -0.416729
C  13.876357  7.631998  -0.015846
C  -1.214289  7.631998  0.033875
C  7.582124  8.371221  -0.480843
C  13.876357  6.197900  -0.014098
C  -1.214289  6.197900  0.031639
C  6.330357  7.631998  -0.547004
C  12.623562  5.453610  -0.308605
C  -2.463372  5.453610  0.085359
C  6.330357  6.197900  -0.553577
C  12.623562  4.000000  -0.162260
C  -2.463372  4.000000  0.102642
C  7.582124  12.724286  0.146795
C  13.876357  10.553000  0.166434
C  -1.214289  10.553000  0.057519
C  6.330357  12.029000  0.139246
C  12.623562  9.823667  -0.111565
C  -2.463372  9.823667  0.094707
C  6.330357  10.553000  -0.131620
C  12.623562  8.371221  -0.290165
C  -2.463372  8.371221  0.080770
C  5.067250  9.823667  -0.097359
C  -3.721000  7.631998  0.105320
C  5.067250  8.371221  -0.258983
C  -3.721000  6.197900  0.109555
C  5.067250  12.724286  0.149893
C  3.815571  12.029000  0.185775
C  3.815571  10.553000  0.196000
C  2.546438  12.724286  0.025988
C  1.302141  12.029000  -0.032318
C  6.330357  3.272000  -0.211765
C  15.145562  12.724286  -0.032263
C  0.021251  12.724286  0.030826
C  13.876357  12.029000  0.121959
C  -1.214289  12.029000  0.078537
C  12.623562  12.724286  0.111250
C  6.330357  1.797813  0.041281
C  8.830644  1.797813  -0.093846
C  11.361143  1.797813  0.020037
C  10.098375  1.101000  0.003593
C  7.582124  1.101000  0.012152
C  5.067250  1.101000  0.041306
C  12.623562  1.101000  0.027613
