142
frame	29
H  17.693000  13.826000  0.000000
H  19.858000  12.564000  0.000000
H  21.106000  10.363000  0.000000
H  22.366000  5.656000  0.000000
H  22.367000  8.165000  0.000000
H  19.852000  1.261000  0.000000
H  17.690000  -0.000000  0.000000
H  21.104000  3.459000  0.000000
H  2.530000  -0.005000  0.000000
H  15.160000  -0.002000  0.000000
H  0.000000  -0.000000  0.000000
H  -2.163000  1.262000  0.000000
H  -3.415000  3.463000  0.000000
H  -4.677000  8.168000  0.000000
H  -4.678000  5.662000  0.000000
H  -2.159000  12.565000  0.000000
H  10.109000  13.837000  0.000000
H  7.585000  13.838000  0.000000
H  5.062000  13.833000  0.000000
H  2.535000  13.828000  0.000000
H  15.163000  13.830000  0.000000
H  0.007000  13.825000  0.000000
H  -3.412000  10.366000  0.000000
H  12.635000  13.835000  0.000000
H  10.108000  -0.010000  0.000000
H  7.583000  -0.012000  0.000000
H  5.058000  -0.011000  0.000000
H  12.631000  -0.009000  0.000000
C  16.391568  10.553000  0.027474
C  16.391568  12.029000  0.012421
C  17.670751  12.724286  0.018170
C  17.670751  8.371221  0.065608
C  17.670751  9.823667  0.051969
C  18.905140  10.553000  0.073564
C  18.905140  12.029000  0.048390
C  17.670751  4.000000  0.052162
C  17.670751  5.453610  0.065142
C  18.905140  6.197900  0.107112
C  18.905140  7.631998  0.104353
C  20.154752  8.371221  0.144330
C  20.154752  9.823667  0.122965
C  18.905140  3.272000  0.083431
C  20.154752  4.000000  0.138951
C  20.154752  5.453610  0.152066
C  21.411000  6.197900  0.210104
C  21.411000  7.631998  0.204970
C  17.670751  1.101000  0.017080
C  18.905140  1.797813  0.061153
C  5.067250  5.453610  0.099666
C  5.067250  4.000000  -0.022797
C  3.815571  3.272000  -0.014618
C  3.815571  1.797813  -0.025918
C  11.361143  3.272000  0.014943
C  2.546438  1.101000  -0.022912
C  3.815571  7.631998  0.021422
C  3.815571  6.197900  0.008272
C  11.361143  7.631998  0.200997
C  2.546438  5.453610  0.020189
C  11.361143  6.197900  0.179813
C  2.546438  4.000000  0.022724
C  10.098375  5.453610  -0.104912
C  16.391568  3.272000  0.014350
C  1.302141  3.272000  0.027511
C  10.098375  4.000000  0.083825
C  16.391568  1.797813  -0.005721
C  1.302141  1.797813  0.003624
C  8.830644  3.272000  0.111357
C  15.145562  1.101000  -0.038132
C  0.021251  1.101000  0.013878
C  11.361143  12.029000  0.015363
C  2.546438  9.823667  0.060491
C  11.361143  10.553000  0.063446
C  2.546438  8.371221  0.037704
C  10.098375  9.823667  0.130390
C  16.391568  7.631998  0.037312
C  1.302141  7.631998  0.059754
C  10.098375  8.371221  -0.040164
C  16.391568  6.197900  0.033106
C  1.302141  6.197900  0.053573
C  15.145562  5.453610  -0.011946
C  0.021251  5.453610  0.061434
C  8.830644  7.631998  -0.558055
C  8.830644  6.197900  -0.583491
C  15.145562  4.000000  -0.004663
C  0.021251  4.000000  0.048090
C  7.582124  5.453610  -0.087784
C  13.876357  3.272000  -0.043862
C  -1.214289  3.272000  0.057500
C  7.582124  4.000000  0.094755
C  13.876357  1.797813  -0.048348
C  -1.214289  1.797813  0.042699
C  10.098375  12.724286  0.028144
C  1.302141  10.553000  0.058614
C  8.830644  12.029000  0.058896
C  15.145562  9.823667  0.019179
C  0.021251  9.823667  0.059924
C  8.830644  10.553000  0.174743
C  15.145562  8.371221  0.001658
C  0.021251  8.371221  0.066829
C  7.582124  9.823667  0.154022
C  13.876357  7.631998  -0.023286
C  -1.214289  7.631998  0.072907
C  7.582124  8.371221  -0.069866
C  13.876357  6.197900  -0.028469
C  -1.214289  6.197900  0.073701
C  6.330357  7.631998  0.236409
C  12.623562  5.453610  0.064616
C  -2.463372  5.453610  0.085759
C  6.330357  6.197900  0.224289
C  12.623562  4.000000  -0.049440
C  -2.463372  4.000000  0.080141
C  7.582124  12.724286  0.048668
C  13.876357  10.553000  0.000467
C  -1.214289  10.553000  0.058660
C  6.330357  12.029000  0.052516
C  12.623562  9.823667  -0.013586
C  -2.463372  9.823667  0.071175
C  6.330357  10.553000  0.118483
C  12.623562  8.371221  0.067753
C  -2.463372  8.371221  0.080046
C  5.067250  9.823667  0.036089
C  -3.721000  7.631998  0.096016
C  5.067250  8.371221  0.130196
C  -3.721000  6.197900  0.100151
C  5.067250  12.724286  0.050989
C  3.815571  12.029000  0.061172
C  3.815571  10.553000  0.046467
C  2.546438  12.724286  0.052079
C  1.302141  12.029000  0.047762
C  6.330357  3.272000  0.036488
C  15.145562  12.724286  0.004855
C  0.021251  12.724286  0.039996
C  13.876357  12.029000  0.011890
C  -1.214289  12.029000  0.046925
C  12.623562  12.724286  0.007800
C  6.330357  1.797813  -0.064547
C  8.830644  1.797813  -0.064139
C  11.361143  1.797813  -0.083633
C  10.098375  1.101000  -0.106875
C  7.582124  1.101000  -0.097288
C  5.067250  1.101000  -0.067888
C  12.623562  1.101000  -0.087202
