142
frame	474
H  17.693000  13.826000  0.000000
H  19.858000  12.564000  0.000000
H  21.106000  10.363000  0.000000
H  22.366000  5.656000  0.000000
H  22.367000  8.165000  0.000000
H  19.852000  1.261000  0.000000
H  17.690000  -0.000000  0.000000
H  21.104000  3.459000  0.000000
H  2.530000  -0.005000  0.000000
H  15.160000  -0.002000  0.000000
H  0.000000  -0.000000  0.000000
H  -2.163000  1.262000  0.000000
H  -3.415000  3.463000  0.000000
H  -4.677000  8.168000  0.000000
H  -4.678000  5.662000  0.000000
H  -2.159000  12.565000  0.000000
H  10.109000  13.837000  0.000000
H  7.585000  13.838000  0.000000
H  5.062000  13.833000  0.000000
H  2.535000  13.828000  0.000000
H  15.163000  13.830000  0.000000
H  0.007000  13.825000  0.000000
H  -3.412000  10.366000  0.000000
H  12.635000  13.835000  0.000000
H  10.108000  -0.010000  0.000000
H  7.583000  -0.012000  0.000000
H  5.058000  -0.011000  0.000000
H  12.631000  -0.009000  0.000000
C  16.391568  10.553000  -0.424057
C  16.391568  12.029000  -0.290236
C  17.670751  12.724286  -0.143015
C  17.670751  8.371221  -0.272530
C  17.670751  9.823667  -0.300448
C  18.905140  10.553000  -0.023336
C  18.905140  12.029000  0.008063
C  17.670751  4.000000  -0.306835
C  17.670751  5.453610  -0.274705
C  18.905140  6.197900  -0.148652
C  18.905140  7.631998  -0.142246
C  20.154752  8.371221  0.065361
C  20.154752  9.823667  0.124633
C  18.905140  3.272000  -0.009907
C  20.154752  4.000000  0.135840
C  20.154752  5.453610  0.069708
C  21.411000  6.197900  0.171699
C  21.411000  7.631998  0.173415
C  17.670751  1.101000  -0.118931
C  18.905140  1.797813  0.035317
C  5.067250  5.453610  -0.548203
C  5.067250  4.000000  -0.386439
C  3.815571  3.272000  -0.325358
C  3.815571  1.797813  -0.168152
C  11.361143  3.272000  -0.195557
C  2.546438  1.101000  -0.165591
C  3.815571  7.631998  -0.575859
C  3.815571  6.197900  -0.585992
C  11.361143  7.631998  -0.352950
C  2.546438  5.453610  -0.536793
C  11.361143  6.197900  -0.369843
C  2.546438  4.000000  -0.488211
C  10.098375  5.453610  -0.196341
C  16.391568  3.272000  -0.436184
C  1.302141  3.272000  -0.457870
C  10.098375  4.000000  -0.065482
C  16.391568  1.797813  -0.316927
C  1.302141  1.797813  -0.293224
C  8.830644  3.272000  0.025112
C  15.145562  1.101000  -0.172887
C  0.021251  1.101000  -0.127144
C  11.361143  12.029000  0.008088
C  2.546438  9.823667  -0.456999
C  11.361143  10.553000  -0.128375
C  2.546438  8.371221  -0.535896
C  10.098375  9.823667  -0.011198
C  16.391568  7.631998  -0.414112
C  1.302141  7.631998  -0.465266
C  10.098375  8.371221  -0.162729
C  16.391568  6.197900  -0.419146
C  1.302141  6.197900  -0.473218
C  15.145562  5.453610  -0.512599
C  0.021251  5.453610  -0.344863
C  8.830644  7.631998  -0.095790
C  8.830644  6.197900  -0.112441
C  15.145562  4.000000  -0.464356
C  0.021251  4.000000  -0.348413
C  7.582124  5.453610  -0.220768
C  13.876357  3.272000  -0.314892
C  -1.214289  3.272000  -0.039403
C  7.582124  4.000000  -0.070150
C  13.876357  1.797813  -0.172336
C  -1.214289  1.797813  0.000961
C  10.098375  12.724286  0.171303
C  1.302141  10.553000  -0.440185
C  8.830644  12.029000  0.165954
C  15.145562  9.823667  -0.433512
C  0.021251  9.823667  -0.343663
C  8.830644  10.553000  0.095921
C  15.145562  8.371221  -0.489852
C  0.021251  8.371221  -0.334453
C  7.582124  9.823667  -0.017570
C  13.876357  7.631998  -0.552566
C  -1.214289  7.631998  -0.227891
C  7.582124  8.371221  -0.185059
C  13.876357  6.197900  -0.565618
C  -1.214289  6.197900  -0.222256
C  6.330357  7.631998  -0.386069
C  12.623562  5.453610  -0.525276
C  -2.463372  5.453610  -0.025743
C  6.330357  6.197900  -0.401452
C  12.623562  4.000000  -0.367188
C  -2.463372  4.000000  0.064737
C  7.582124  12.724286  0.178460
C  13.876357  10.553000  -0.265025
C  -1.214289  10.553000  -0.049454
C  6.330357  12.029000  0.015479
C  12.623562  9.823667  -0.324053
C  -2.463372  9.823667  0.047785
C  6.330357  10.553000  -0.146528
C  12.623562  8.371221  -0.505569
C  -2.463372  8.371221  -0.021080
C  5.067250  9.823667  -0.331303
C  -3.721000  7.631998  0.055409
C  5.067250  8.371221  -0.528908
C  -3.721000  6.197900  0.058511
C  5.067250  12.724286  -0.033286
C  3.815571  12.029000  -0.092724
C  3.815571  10.553000  -0.266333
C  2.546438  12.724286  -0.109954
C  1.302141  12.029000  -0.260195
C  6.330357  3.272000  -0.207771
C  15.145562  12.724286  -0.128844
C  0.021251  12.724286  -0.092031
C  13.876357  12.029000  -0.108018
C  -1.214289  12.029000  0.001625
C  12.623562  12.724286  -0.047933
C  6.330357  1.797813  -0.092187
C  8.830644  1.797813  0.053226
C  11.361143  1.797813  -0.072477
C  10.098375  1.101000  0.045714
C  7.582124  1.101000  0.046754
C  5.067250  1.101000  -0.142411
C  12.623562  1.101000  -0.137692
