142
frame	458
H  17.693000  13.826000  0.000000
H  19.858000  12.564000  0.000000
H  21.106000  10.363000  0.000000
H  22.366000  5.656000  0.000000
H  22.367000  8.165000  0.000000
H  19.852000  1.261000  0.000000
H  17.690000  -0.000000  0.000000
H  21.104000  3.459000  0.000000
H  2.530000  -0.005000  0.000000
H  15.160000  -0.002000  0.000000
H  0.000000  -0.000000  0.000000
H  -2.163000  1.262000  0.000000
H  -3.415000  3.463000  0.000000
H  -4.677000  8.168000  0.000000
H  -4.678000  5.662000  0.000000
H  -2.159000  12.565000  0.000000
H  10.109000  13.837000  0.000000
H  7.585000  13.838000  0.000000
H  5.062000  13.833000  0.000000
H  2.535000  13.828000  0.000000
H  15.163000  13.830000  0.000000
H  0.007000  13.825000  0.000000
H  -3.412000  10.366000  0.000000
H  12.635000  13.835000  0.000000
H  10.108000  -0.010000  0.000000
H  7.583000  -0.012000  0.000000
H  5.058000  -0.011000  0.000000
H  12.631000  -0.009000  0.000000
C  16.391568  10.553000  -0.439936
C  16.391568  12.029000  -0.419663
C  17.670751  12.724286  -0.189533
C  17.670751  8.371221  -0.462385
C  17.670751  9.823667  -0.331259
C  18.905140  10.553000  -0.036563
C  18.905140  12.029000  0.015034
C  17.670751  4.000000  -0.330787
C  17.670751  5.453610  -0.475521
C  18.905140  6.197900  -0.158102
C  18.905140  7.631998  -0.154282
C  20.154752  8.371221  0.128636
C  20.154752  9.823667  0.144488
C  18.905140  3.272000  -0.022707
C  20.154752  4.000000  0.164828
C  20.154752  5.453610  0.134009
C  21.411000  6.197900  0.214846
C  21.411000  7.631998  0.218543
C  17.670751  1.101000  -0.198355
C  18.905140  1.797813  0.032145
C  5.067250  5.453610  -0.466540
C  5.067250  4.000000  -0.519199
C  3.815571  3.272000  -0.549712
C  3.815571  1.797813  -0.320821
C  11.361143  3.272000  -0.204502
C  2.546438  1.101000  -0.325423
C  3.815571  7.631998  -0.483212
C  3.815571  6.197900  -0.489358
C  11.361143  7.631998  -0.259949
C  2.546438  5.453610  -0.524975
C  11.361143  6.197900  -0.265238
C  2.546438  4.000000  -0.468663
C  10.098375  5.453610  -0.246706
C  16.391568  3.272000  -0.461369
C  1.302141  3.272000  -0.466779
C  10.098375  4.000000  -0.074753
C  16.391568  1.797813  -0.419837
C  1.302141  1.797813  -0.447218
C  8.830644  3.272000  0.064321
C  15.145562  1.101000  -0.328268
C  0.021251  1.101000  -0.195979
C  11.361143  12.029000  0.069049
C  2.546438  9.823667  -0.446081
C  11.361143  10.553000  -0.137943
C  2.546438  8.371221  -0.520364
C  10.098375  9.823667  -0.018968
C  16.391568  7.631998  -0.548973
C  1.302141  7.631998  -0.623769
C  10.098375  8.371221  -0.219344
C  16.391568  6.197900  -0.567066
C  1.302141  6.197900  -0.621263
C  15.145562  5.453610  -0.484143
C  0.021251  5.453610  -0.540658
C  8.830644  7.631998  -0.373756
C  8.830644  6.197900  -0.390687
C  15.145562  4.000000  -0.448358
C  0.021251  4.000000  -0.378443
C  7.582124  5.453610  -0.262265
C  13.876357  3.272000  -0.535477
C  -1.214289  3.272000  -0.075452
C  7.582124  4.000000  -0.100923
C  13.876357  1.797813  -0.326736
C  -1.214289  1.797813  0.020645
C  10.098375  12.724286  0.150257
C  1.302141  10.553000  -0.450006
C  8.830644  12.029000  0.228450
C  15.145562  9.823667  -0.425935
C  0.021251  9.823667  -0.368432
C  8.830644  10.553000  0.153804
C  15.145562  8.371221  -0.471728
C  0.021251  8.371221  -0.533337
C  7.582124  9.823667  -0.028343
C  13.876357  7.631998  -0.449371
C  -1.214289  7.631998  -0.222970
C  7.582124  8.371221  -0.225068
C  13.876357  6.197900  -0.445367
C  -1.214289  6.197900  -0.233369
C  6.330357  7.631998  -0.266004
C  12.623562  5.453610  -0.444047
C  -2.463372  5.453610  0.043043
C  6.330357  6.197900  -0.276266
C  12.623562  4.000000  -0.506652
C  -2.463372  4.000000  0.101597
C  7.582124  12.724286  0.166535
C  13.876357  10.553000  -0.470952
C  -1.214289  10.553000  -0.087069
C  6.330357  12.029000  0.074933
C  12.623562  9.823667  -0.449399
C  -2.463372  9.823667  0.086576
C  6.330357  10.553000  -0.147544
C  12.623562  8.371221  -0.422777
C  -2.463372  8.371221  0.034060
C  5.067250  9.823667  -0.477393
C  -3.721000  7.631998  0.080131
C  5.067250  8.371221  -0.438422
C  -3.721000  6.197900  0.084148
C  5.067250  12.724286  0.083837
C  3.815571  12.029000  -0.246854
C  3.815571  10.553000  -0.479868
C  2.546438  12.724286  -0.252073
C  1.302141  12.029000  -0.404604
C  6.330357  3.272000  -0.219244
C  15.145562  12.724286  -0.289011
C  0.021251  12.724286  -0.169868
C  13.876357  12.029000  -0.249941
C  -1.214289  12.029000  0.023803
C  12.623562  12.724286  0.070693
C  6.330357  1.797813  -0.014260
C  8.830644  1.797813  0.121722
C  11.361143  1.797813  -0.011947
C  10.098375  1.101000  0.045474
C  7.582124  1.101000  0.034921
C  5.067250  1.101000  -0.016617
C  12.623562  1.101000  -0.010973
