142
frame	204
H  17.693000  13.826000  0.000000
H  19.858000  12.564000  0.000000
H  21.106000  10.363000  0.000000
H  22.366000  5.656000  0.000000
H  22.367000  8.165000  0.000000
H  19.852000  1.261000  0.000000
H  17.690000  -0.000000  0.000000
H  21.104000  3.459000  0.000000
H  2.530000  -0.005000  0.000000
H  15.160000  -0.002000  0.000000
H  0.000000  -0.000000  0.000000
H  -2.163000  1.262000  0.000000
H  -3.415000  3.463000  0.000000
H  -4.677000  8.168000  0.000000
H  -4.678000  5.662000  0.000000
H  -2.159000  12.565000  0.000000
H  10.109000  13.837000  0.000000
H  7.585000  13.838000  0.000000
H  5.062000  13.833000  0.000000
H  2.535000  13.828000  0.000000
H  15.163000  13.830000  0.000000
H  0.007000  13.825000  0.000000
H  -3.412000  10.366000  0.000000
H  12.635000  13.835000  0.000000
H  10.108000  -0.010000  0.000000
H  7.583000  -0.012000  0.000000
H  5.058000  -0.011000  0.000000
H  12.631000  -0.009000  0.000000
C  16.391568  10.553000  -0.040616
C  16.391568  12.029000  -0.056530
C  17.670751  12.724286  -0.068103
C  17.670751  8.371221  0.184297
C  17.670751  9.823667  0.222916
C  18.905140  10.553000  0.166233
C  18.905140  12.029000  -0.030614
C  17.670751  4.000000  0.221457
C  17.670751  5.453610  0.177607
C  18.905140  6.197900  0.232224
C  18.905140  7.631998  0.216563
C  20.154752  8.371221  0.322857
C  20.154752  9.823667  0.272033
C  18.905140  3.272000  0.176786
C  20.154752  4.000000  0.271636
C  20.154752  5.453610  0.344249
C  21.411000  6.197900  0.404721
C  21.411000  7.631998  0.401548
C  17.670751  1.101000  -0.063265
C  18.905140  1.797813  -0.016701
C  5.067250  5.453610  -0.525616
C  5.067250  4.000000  -0.594358
C  3.815571  3.272000  -0.543086
C  3.815571  1.797813  -0.348185
C  11.361143  3.272000  -0.525704
C  2.546438  1.101000  -0.103329
C  3.815571  7.631998  -0.293811
C  3.815571  6.197900  -0.308112
C  11.361143  7.631998  -0.667769
C  2.546438  5.453610  -0.341594
C  11.361143  6.197900  -0.690700
C  2.546438  4.000000  -0.403164
C  10.098375  5.453610  -0.704945
C  16.391568  3.272000  -0.066725
C  1.302141  3.272000  -0.068419
C  10.098375  4.000000  -0.615700
C  16.391568  1.797813  -0.067756
C  1.302141  1.797813  -0.073667
C  8.830644  3.272000  -0.531375
C  15.145562  1.101000  -0.116127
C  0.021251  1.101000  -0.091157
C  11.361143  12.029000  -0.368429
C  2.546438  9.823667  -0.364772
C  11.361143  10.553000  -0.462115
C  2.546438  8.371221  -0.312202
C  10.098375  9.823667  -0.540133
C  16.391568  7.631998  -0.119014
C  1.302141  7.631998  -0.130167
C  10.098375  8.371221  -0.689984
C  16.391568  6.197900  -0.121109
C  1.302141  6.197900  -0.133253
C  15.145562  5.453610  -0.334415
C  0.021251  5.453610  0.168793
C  8.830644  7.631998  -0.720796
C  8.830644  6.197900  -0.739656
C  15.145562  4.000000  -0.390888
C  0.021251  4.000000  0.196255
C  7.582124  5.453610  -0.711404
C  13.876357  3.272000  -0.538483
C  -1.214289  3.272000  0.119606
C  7.582124  4.000000  -0.619392
C  13.876357  1.797813  -0.343231
C  -1.214289  1.797813  -0.049837
C  10.098375  12.724286  -0.164519
C  1.302141  10.553000  -0.036454
C  8.830644  12.029000  -0.370924
C  15.145562  9.823667  -0.376658
C  0.021251  9.823667  0.210598
C  8.830644  10.553000  -0.449305
C  15.145562  8.371221  -0.317022
C  0.021251  8.371221  0.159566
C  7.582124  9.823667  -0.544961
C  13.876357  7.631998  -0.284151
C  -1.214289  7.631998  0.181736
C  7.582124  8.371221  -0.680542
C  13.876357  6.197900  -0.310842
C  -1.214289  6.197900  0.184577
C  6.330357  7.631998  -0.664665
C  12.623562  5.453610  -0.514335
C  -2.463372  5.453610  0.266930
C  6.330357  6.197900  -0.693579
C  12.623562  4.000000  -0.603292
C  -2.463372  4.000000  0.205878
C  7.582124  12.724286  -0.146395
C  13.876357  10.553000  -0.511624
C  -1.214289  10.553000  0.128173
C  6.330357  12.029000  -0.342822
C  12.623562  9.823667  -0.552601
C  -2.463372  9.823667  0.195058
C  6.330357  10.553000  -0.446201
C  12.623562  8.371221  -0.486865
C  -2.463372  8.371221  0.268484
C  5.067250  9.823667  -0.541461
C  -3.721000  7.631998  0.297417
C  5.067250  8.371221  -0.490096
C  -3.721000  6.197900  0.299297
C  5.067250  12.724286  -0.200809
C  3.815571  12.029000  -0.267986
C  3.815571  10.553000  -0.475291
C  2.546438  12.724286  -0.031937
C  1.302141  12.029000  -0.022427
C  6.330357  3.272000  -0.521693
C  15.145562  12.724286  -0.070884
C  0.021251  12.724286  -0.053871
C  13.876357  12.029000  -0.290336
C  -1.214289  12.029000  -0.032424
C  12.623562  12.724286  -0.239184
C  6.330357  1.797813  -0.456184
C  8.830644  1.797813  -0.492117
C  11.361143  1.797813  -0.466960
C  10.098375  1.101000  -0.286176
C  7.582124  1.101000  -0.287640
C  5.067250  1.101000  -0.319184
C  12.623562  1.101000  -0.327748
