142
frame	680
H  17.693000  13.826000  0.000000
H  19.858000  12.564000  0.000000
H  21.106000  10.363000  0.000000
H  22.366000  5.656000  0.000000
H  22.367000  8.165000  0.000000
H  19.852000  1.261000  0.000000
H  17.690000  -0.000000  0.000000
H  21.104000  3.459000  0.000000
H  2.530000  -0.005000  0.000000
H  15.160000  -0.002000  0.000000
H  0.000000  -0.000000  0.000000
H  -2.163000  1.262000  0.000000
H  -3.415000  3.463000  0.000000
H  -4.677000  8.168000  0.000000
H  -4.678000  5.662000  0.000000
H  -2.159000  12.565000  0.000000
H  10.109000  13.837000  0.000000
H  7.585000  13.838000  0.000000
H  5.062000  13.833000  0.000000
H  2.535000  13.828000  0.000000
H  15.163000  13.830000  0.000000
H  0.007000  13.825000  0.000000
H  -3.412000  10.366000  0.000000
H  12.635000  13.835000  0.000000
H  10.108000  -0.010000  0.000000
H  7.583000  -0.012000  0.000000
H  5.058000  -0.011000  0.000000
H  12.631000  -0.009000  0.000000
C  16.391568  10.553000  0.438044
C  16.391568  12.029000  0.263519
C  17.670751  12.724286  0.252261
C  17.670751  8.371221  0.496387
C  17.670751  9.823667  0.425784
C  18.905140  10.553000  0.383898
C  18.905140  12.029000  0.291786
C  17.670751  4.000000  0.434523
C  17.670751  5.453610  0.496664
C  18.905140  6.197900  0.673635
C  18.905140  7.631998  0.678625
C  20.154752  8.371221  0.535997
C  20.154752  9.823667  0.338176
C  18.905140  3.272000  0.401632
C  20.154752  4.000000  0.356326
C  20.154752  5.453610  0.549160
C  21.411000  6.197900  0.411024
C  21.411000  7.631998  0.409199
C  17.670751  1.101000  0.251771
C  18.905140  1.797813  0.317077
C  5.067250  5.453610  0.144053
C  5.067250  4.000000  0.043792
C  3.815571  3.272000  0.103256
C  3.815571  1.797813  -0.016698
C  11.361143  3.272000  -0.008539
C  2.546438  1.101000  0.030111
C  3.815571  7.631998  0.175193
C  3.815571  6.197900  0.159478
C  11.361143  7.631998  0.066934
C  2.546438  5.453610  0.323525
C  11.361143  6.197900  0.064950
C  2.546438  4.000000  0.334333
C  10.098375  5.453610  -0.089775
C  16.391568  3.272000  0.439294
C  1.302141  3.272000  0.442500
C  10.098375  4.000000  0.007919
C  16.391568  1.797813  0.246257
C  1.302141  1.797813  0.250881
C  8.830644  3.272000  0.033071
C  15.145562  1.101000  0.013388
C  0.021251  1.101000  0.249147
C  11.361143  12.029000  0.084016
C  2.546438  9.823667  0.387339
C  11.361143  10.553000  0.058804
C  2.546438  8.371221  0.329979
C  10.098375  9.823667  0.079212
C  16.391568  7.631998  0.392141
C  1.302141  7.631998  0.407621
C  10.098375  8.371221  -0.063696
C  16.391568  6.197900  0.382426
C  1.302141  6.197900  0.406889
C  15.145562  5.453610  0.297021
C  0.021251  5.453610  0.463684
C  8.830644  7.631998  -0.251141
C  8.830644  6.197900  -0.269275
C  15.145562  4.000000  0.325874
C  0.021251  4.000000  0.402809
C  7.582124  5.453610  -0.092333
C  13.876357  3.272000  0.078691
C  -1.214289  3.272000  0.366438
C  7.582124  4.000000  0.035251
C  13.876357  1.797813  -0.023935
C  -1.214289  1.797813  0.293568
C  10.098375  12.724286  -0.006369
C  1.302141  10.553000  0.462749
C  8.830644  12.029000  0.066002
C  15.145562  9.823667  0.331321
C  0.021251  9.823667  0.409645
C  8.830644  10.553000  0.123758
C  15.145562  8.371221  0.283686
C  0.021251  8.371221  0.465639
C  7.582124  9.823667  0.109758
C  13.876357  7.631998  0.138632
C  -1.214289  7.631998  0.617717
C  7.582124  8.371221  -0.060836
C  13.876357  6.197900  0.147302
C  -1.214289  6.197900  0.618657
C  6.330357  7.631998  0.107584
C  12.623562  5.453610  0.142103
C  -2.463372  5.453610  0.449245
C  6.330357  6.197900  0.076526
C  12.623562  4.000000  0.021948
C  -2.463372  4.000000  0.287939
C  7.582124  12.724286  0.035732
C  13.876357  10.553000  0.123709
C  -1.214289  10.553000  0.366516
C  6.330357  12.029000  0.128376
C  12.623562  9.823667  0.069089
C  -2.463372  9.823667  0.265017
C  6.330357  10.553000  0.104604
C  12.623562  8.371221  0.136253
C  -2.463372  8.371221  0.444167
C  5.067250  9.823667  0.104948
C  -3.721000  7.631998  0.272116
C  5.067250  8.371221  0.162689
C  -3.721000  6.197900  0.286155
C  5.067250  12.724286  0.116900
C  3.815571  12.029000  0.096046
C  3.815571  10.553000  0.179636
C  2.546438  12.724286  0.107184
C  1.302141  12.029000  0.294931
C  6.330357  3.272000  0.012090
C  15.145562  12.724286  0.077690
C  0.021251  12.724286  0.293224
C  13.876357  12.029000  0.040522
C  -1.214289  12.029000  0.301038
C  12.623562  12.724286  0.067593
C  6.330357  1.797813  0.019936
C  8.830644  1.797813  -0.055064
C  11.361143  1.797813  -0.016496
C  10.098375  1.101000  -0.128680
C  7.582124  1.101000  -0.106058
C  5.067250  1.101000  -0.003749
C  12.623562  1.101000  -0.009882
