142
frame	615
H  17.693000  13.826000  0.000000
H  19.858000  12.564000  0.000000
H  21.106000  10.363000  0.000000
H  22.366000  5.656000  0.000000
H  22.367000  8.165000  0.000000
H  19.852000  1.261000  0.000000
H  17.690000  -0.000000  0.000000
H  21.104000  3.459000  0.000000
H  2.530000  -0.005000  0.000000
H  15.160000  -0.002000  0.000000
H  0.000000  -0.000000  0.000000
H  -2.163000  1.262000  0.000000
H  -3.415000  3.463000  0.000000
H  -4.677000  8.168000  0.000000
H  -4.678000  5.662000  0.000000
H  -2.159000  12.565000  0.000000
H  10.109000  13.837000  0.000000
H  7.585000  13.838000  0.000000
H  5.062000  13.833000  0.000000
H  2.535000  13.828000  0.000000
H  15.163000  13.830000  0.000000
H  0.007000  13.825000  0.000000
H  -3.412000  10.366000  0.000000
H  12.635000  13.835000  0.000000
H  10.108000  -0.010000  0.000000
H  7.583000  -0.012000  0.000000
H  5.058000  -0.011000  0.000000
H  12.631000  -0.009000  0.000000
C  16.391568  10.553000  0.173509
C  16.391568  12.029000  0.002571
C  17.670751  12.724286  -0.093191
C  17.670751  8.371221  0.373052
C  17.670751  9.823667  0.181173
C  18.905140  10.553000  -0.066939
C  18.905140  12.029000  -0.076993
C  17.670751  4.000000  0.183520
C  17.670751  5.453610  0.358507
C  18.905140  6.197900  0.298690
C  18.905140  7.631998  0.281997
C  20.154752  8.371221  0.164395
C  20.154752  9.823667  0.007682
C  18.905140  3.272000  -0.064683
C  20.154752  4.000000  0.025567
C  20.154752  5.453610  0.180109
C  21.411000  6.197900  0.247100
C  21.411000  7.631998  0.231824
C  17.670751  1.101000  -0.080002
C  18.905140  1.797813  -0.076364
C  5.067250  5.453610  0.075613
C  5.067250  4.000000  -0.033971
C  3.815571  3.272000  0.018038
C  3.815571  1.797813  0.017339
C  11.361143  3.272000  -0.117955
C  2.546438  1.101000  -0.047334
C  3.815571  7.631998  0.195842
C  3.815571  6.197900  0.191648
C  11.361143  7.631998  -0.042301
C  2.546438  5.453610  0.350936
C  11.361143  6.197900  -0.054730
C  2.546438  4.000000  0.225817
C  10.098375  5.453610  -0.291873
C  16.391568  3.272000  0.175739
C  1.302141  3.272000  0.152829
C  10.098375  4.000000  -0.262641
C  16.391568  1.797813  -0.005635
C  1.302141  1.797813  -0.013530
C  8.830644  3.272000  -0.262306
C  15.145562  1.101000  -0.045923
C  0.021251  1.101000  -0.104189
C  11.361143  12.029000  -0.057408
C  2.546438  9.823667  0.260548
C  11.361143  10.553000  -0.048372
C  2.546438  8.371221  0.365119
C  10.098375  9.823667  -0.219384
C  16.391568  7.631998  0.471906
C  1.302141  7.631998  0.443927
C  10.098375  8.371221  -0.285822
C  16.391568  6.197900  0.465507
C  1.302141  6.197900  0.443081
C  15.145562  5.453610  0.352320
C  0.021251  5.453610  0.326439
C  8.830644  7.631998  -0.471031
C  8.830644  6.197900  -0.470033
C  15.145562  4.000000  0.221350
C  0.021251  4.000000  0.153857
C  7.582124  5.453610  -0.296500
C  13.876357  3.272000  0.011442
C  -1.214289  3.272000  -0.098227
C  7.582124  4.000000  -0.269598
C  13.876357  1.797813  0.002953
C  -1.214289  1.797813  -0.096377
C  10.098375  12.724286  -0.125116
C  1.302141  10.553000  0.182510
C  8.830644  12.029000  -0.220529
C  15.145562  9.823667  0.239459
C  0.021251  9.823667  0.172521
C  8.830644  10.553000  -0.197508
C  15.145562  8.371221  0.367588
C  0.021251  8.371221  0.350810
C  7.582124  9.823667  -0.209336
C  13.876357  7.631998  0.184808
C  -1.214289  7.631998  0.261145
C  7.582124  8.371221  -0.271555
C  13.876357  6.197900  0.177607
C  -1.214289  6.197900  0.244345
C  6.330357  7.631998  -0.018095
C  12.623562  5.453610  0.054518
C  -2.463372  5.453610  0.130796
C  6.330357  6.197900  -0.023188
C  12.623562  4.000000  -0.035388
C  -2.463372  4.000000  -0.026669
C  7.582124  12.724286  -0.102680
C  13.876357  10.553000  0.053926
C  -1.214289  10.553000  -0.095741
C  6.330357  12.029000  -0.028603
C  12.623562  9.823667  0.015733
C  -2.463372  9.823667  -0.038835
C  6.330357  10.553000  -0.044759
C  12.623562  8.371221  0.073659
C  -2.463372  8.371221  0.126801
C  5.067250  9.823667  0.016189
C  -3.721000  7.631998  0.139997
C  5.067250  8.371221  0.103110
C  -3.721000  6.197900  0.140269
C  5.067250  12.724286  0.117757
C  3.815571  12.029000  0.089975
C  3.815571  10.553000  0.083487
C  2.546438  12.724286  0.013731
C  1.302141  12.029000  0.023906
C  6.330357  3.272000  -0.109616
C  15.145562  12.724286  -0.017887
C  0.021251  12.724286  -0.070866
C  13.876357  12.029000  0.053411
C  -1.214289  12.029000  -0.085672
C  12.623562  12.724286  0.077508
C  6.330357  1.797813  -0.141064
C  8.830644  1.797813  -0.331003
C  11.361143  1.797813  -0.137874
C  10.098375  1.101000  -0.249584
C  7.582124  1.101000  -0.232319
C  5.067250  1.101000  0.015553
C  12.623562  1.101000  0.014211
