142
frame	57
H  17.693000  13.826000  0.000000
H  19.858000  12.564000  0.000000
H  21.106000  10.363000  0.000000
H  22.366000  5.656000  0.000000
H  22.367000  8.165000  0.000000
H  19.852000  1.261000  0.000000
H  17.690000  -0.000000  0.000000
H  21.104000  3.459000  0.000000
H  2.530000  -0.005000  0.000000
H  15.160000  -0.002000  0.000000
H  0.000000  -0.000000  0.000000
H  -2.163000  1.262000  0.000000
H  -3.415000  3.463000  0.000000
H  -4.677000  8.168000  0.000000
H  -4.678000  5.662000  0.000000
H  -2.159000  12.565000  0.000000
H  10.109000  13.837000  0.000000
H  7.585000  13.838000  0.000000
H  5.062000  13.833000  0.000000
H  2.535000  13.828000  0.000000
H  15.163000  13.830000  0.000000
H  0.007000  13.825000  0.000000
H  -3.412000  10.366000  0.000000
H  12.635000  13.835000  0.000000
H  10.108000  -0.010000  0.000000
H  7.583000  -0.012000  0.000000
H  5.058000  -0.011000  0.000000
H  12.631000  -0.009000  0.000000
C  16.391568  10.553000  0.017513
C  16.391568  12.029000  0.026189
C  17.670751  12.724286  0.024777
C  17.670751  8.371221  0.054665
C  17.670751  9.823667  0.064814
C  18.905140  10.553000  0.081123
C  18.905140  12.029000  0.049011
C  17.670751  4.000000  0.061065
C  17.670751  5.453610  0.051421
C  18.905140  6.197900  0.110042
C  18.905140  7.631998  0.109203
C  20.154752  8.371221  0.146056
C  20.154752  9.823667  0.121567
C  18.905140  3.272000  0.090937
C  20.154752  4.000000  0.136553
C  20.154752  5.453610  0.153792
C  21.411000  6.197900  0.208911
C  21.411000  7.631998  0.203721
C  17.670751  1.101000  0.023701
C  18.905140  1.797813  0.061767
C  5.067250  5.453610  0.093543
C  5.067250  4.000000  0.167959
C  3.815571  3.272000  0.001571
C  3.815571  1.797813  -0.074848
C  11.361143  3.272000  0.010575
C  2.546438  1.101000  -0.039989
C  3.815571  7.631998  0.220460
C  3.815571  6.197900  0.210384
C  11.361143  7.631998  -0.333295
C  2.546438  5.453610  0.039749
C  11.361143  6.197900  -0.331457
C  2.546438  4.000000  -0.035987
C  10.098375  5.453610  -0.572250
C  16.391568  3.272000  -0.002136
C  1.302141  3.272000  0.010740
C  10.098375  4.000000  -0.198768
C  16.391568  1.797813  0.003336
C  1.302141  1.797813  0.014791
C  8.830644  3.272000  -0.136754
C  15.145562  1.101000  -0.053491
C  0.021251  1.101000  0.021183
C  11.361143  12.029000  0.109438
C  2.546438  9.823667  0.002937
C  11.361143  10.553000  0.084134
C  2.546438  8.371221  0.060345
C  10.098375  9.823667  -0.131635
C  16.391568  7.631998  -0.009441
C  1.302141  7.631998  0.012060
C  10.098375  8.371221  -0.535576
C  16.391568  6.197900  -0.008605
C  1.302141  6.197900  0.004811
C  15.145562  5.453610  0.011981
C  0.021251  5.453610  0.047706
C  8.830644  7.631998  -0.594034
C  8.830644  6.197900  -0.599171
C  15.145562  4.000000  -0.059282
C  0.021251  4.000000  0.057429
C  7.582124  5.453610  -0.566188
C  13.876357  3.272000  -0.025240
C  -1.214289  3.272000  0.064863
C  7.582124  4.000000  -0.188069
C  13.876357  1.797813  -0.095734
C  -1.214289  1.797813  0.041975
C  10.098375  12.724286  0.125320
C  1.302141  10.553000  0.041942
C  8.830644  12.029000  0.172280
C  15.145562  9.823667  -0.039775
C  0.021251  9.823667  0.071268
C  8.830644  10.553000  -0.044963
C  15.145562  8.371221  0.011376
C  0.021251  8.371221  0.054134
C  7.582124  9.823667  -0.133243
C  13.876357  7.631998  0.170155
C  -1.214289  7.631998  0.078279
C  7.582124  8.371221  -0.527335
C  13.876357  6.197900  0.158922
C  -1.214289  6.197900  0.079073
C  6.330357  7.631998  -0.316981
C  12.623562  5.453610  0.053274
C  -2.463372  5.453610  0.088054
C  6.330357  6.197900  -0.332113
C  12.623562  4.000000  0.128967
C  -2.463372  4.000000  0.079439
C  7.582124  12.724286  0.150319
C  13.876357  10.553000  0.001540
C  -1.214289  10.553000  0.066062
C  6.330357  12.029000  0.154913
C  12.623562  9.823667  0.163817
C  -2.463372  9.823667  0.070449
C  6.330357  10.553000  0.096465
C  12.623562  8.371221  0.095974
C  -2.463372  8.371221  0.084372
C  5.067250  9.823667  0.219550
C  -3.721000  7.631998  0.096199
C  5.067250  8.371221  0.114025
C  -3.721000  6.197900  0.100321
C  5.067250  12.724286  0.080233
C  3.815571  12.029000  0.012465
C  3.815571  10.553000  0.065851
C  2.546438  12.724286  0.035195
C  1.302141  12.029000  0.060014
C  6.330357  3.272000  0.030543
C  15.145562  12.724286  -0.006137
C  0.021251  12.724286  0.048261
C  13.876357  12.029000  -0.036277
C  -1.214289  12.029000  0.048150
C  12.623562  12.724286  0.022518
C  6.330357  1.797813  0.041887
C  8.830644  1.797813  0.073248
C  11.361143  1.797813  0.029125
C  10.098375  1.101000  0.013178
C  7.582124  1.101000  0.021073
C  5.067250  1.101000  -0.039762
C  12.623562  1.101000  -0.059267
