142
frame	241
H  17.693000  13.826000  0.000000
H  19.858000  12.564000  0.000000
H  21.106000  10.363000  0.000000
H  22.366000  5.656000  0.000000
H  22.367000  8.165000  0.000000
H  19.852000  1.261000  0.000000
H  17.690000  -0.000000  0.000000
H  21.104000  3.459000  0.000000
H  2.530000  -0.005000  0.000000
H  15.160000  -0.002000  0.000000
H  0.000000  -0.000000  0.000000
H  -2.163000  1.262000  0.000000
H  -3.415000  3.463000  0.000000
H  -4.677000  8.168000  0.000000
H  -4.678000  5.662000  0.000000
H  -2.159000  12.565000  0.000000
H  10.109000  13.837000  0.000000
H  7.585000  13.838000  0.000000
H  5.062000  13.833000  0.000000
H  2.535000  13.828000  0.000000
H  15.163000  13.830000  0.000000
H  0.007000  13.825000  0.000000
H  -3.412000  10.366000  0.000000
H  12.635000  13.835000  0.000000
H  10.108000  -0.010000  0.000000
H  7.583000  -0.012000  0.000000
H  5.058000  -0.011000  0.000000
H  12.631000  -0.009000  0.000000
C  16.391568  10.553000  -0.300720
C  16.391568  12.029000  -0.211738
C  17.670751  12.724286  -0.019458
C  17.670751  8.371221  0.097096
C  17.670751  9.823667  -0.274652
C  18.905140  10.553000  -0.203069
C  18.905140  12.029000  -0.056601
C  17.670751  4.000000  -0.271949
C  17.670751  5.453610  0.078290
C  18.905140  6.197900  0.388627
C  18.905140  7.631998  0.390534
C  20.154752  8.371221  0.253106
C  20.154752  9.823667  0.011524
C  18.905140  3.272000  -0.198026
C  20.154752  4.000000  0.032927
C  20.154752  5.453610  0.251625
C  21.411000  6.197900  0.222918
C  21.411000  7.631998  0.235960
C  17.670751  1.101000  -0.026580
C  18.905140  1.797813  -0.037041
C  5.067250  5.453610  -0.766214
C  5.067250  4.000000  -0.518880
C  3.815571  3.272000  -0.265286
C  3.815571  1.797813  -0.244235
C  11.361143  3.272000  -0.452220
C  2.546438  1.101000  -0.222177
C  3.815571  7.631998  -0.728328
C  3.815571  6.197900  -0.741111
C  11.361143  7.631998  -0.752369
C  2.546438  5.453610  -0.334371
C  11.361143  6.197900  -0.770673
C  2.546438  4.000000  -0.257895
C  10.098375  5.453610  -0.739445
C  16.391568  3.272000  -0.312425
C  1.302141  3.272000  -0.333706
C  10.098375  4.000000  -0.594205
C  16.391568  1.797813  -0.225204
C  1.302141  1.797813  -0.246282
C  8.830644  3.272000  -0.416335
C  15.145562  1.101000  -0.220397
C  0.021251  1.101000  -0.036162
C  11.361143  12.029000  -0.248471
C  2.546438  9.823667  -0.226917
C  11.361143  10.553000  -0.389250
C  2.546438  8.371221  -0.306953
C  10.098375  9.823667  -0.523871
C  16.391568  7.631998  0.023410
C  1.302141  7.631998  -0.000782
C  10.098375  8.371221  -0.702928
C  16.391568  6.197900  0.014270
C  1.302141  6.197900  -0.008852
C  15.145562  5.453610  -0.301419
C  0.021251  5.453610  0.041294
C  8.830644  7.631998  -0.822992
C  8.830644  6.197900  -0.849437
C  15.145562  4.000000  -0.250245
C  0.021251  4.000000  -0.317391
C  7.582124  5.453610  -0.740301
C  13.876357  3.272000  -0.268725
C  -1.214289  3.272000  -0.244870
C  7.582124  4.000000  -0.592957
C  13.876357  1.797813  -0.256592
C  -1.214289  1.797813  -0.063292
C  10.098375  12.724286  -0.053731
C  1.302141  10.553000  -0.294539
C  8.830644  12.029000  -0.179167
C  15.145562  9.823667  -0.222170
C  0.021251  9.823667  -0.287035
C  8.830644  10.553000  -0.335241
C  15.145562  8.371221  -0.298667
C  0.021251  8.371221  0.062257
C  7.582124  9.823667  -0.508380
C  13.876357  7.631998  -0.722788
C  -1.214289  7.631998  0.334734
C  7.582124  8.371221  -0.715705
C  13.876357  6.197900  -0.722668
C  -1.214289  6.197900  0.325761
C  6.330357  7.631998  -0.759382
C  12.623562  5.453610  -0.748008
C  -2.463372  5.453610  0.176197
C  6.330357  6.197900  -0.778795
C  12.623562  4.000000  -0.507858
C  -2.463372  4.000000  -0.031012
C  7.582124  12.724286  -0.038248
C  13.876357  10.553000  -0.225947
C  -1.214289  10.553000  -0.244392
C  6.330357  12.029000  -0.231606
C  12.623562  9.823667  -0.456587
C  -2.463372  9.823667  -0.034049
C  6.330357  10.553000  -0.375942
C  12.623562  8.371221  -0.748650
C  -2.463372  8.371221  0.172573
C  5.067250  9.823667  -0.452579
C  -3.721000  7.631998  0.096268
C  5.067250  8.371221  -0.743991
C  -3.721000  6.197900  0.113470
C  5.067250  12.724286  -0.051796
C  3.815571  12.029000  -0.155683
C  3.815571  10.553000  -0.198982
C  2.546438  12.724286  -0.147229
C  1.302141  12.029000  -0.201442
C  6.330357  3.272000  -0.463994
C  15.145562  12.724286  -0.185783
C  0.021251  12.724286  -0.013151
C  13.876357  12.029000  -0.192573
C  -1.214289  12.029000  -0.063008
C  12.623562  12.724286  -0.094780
C  6.330357  1.797813  -0.348731
C  8.830644  1.797813  -0.317140
C  11.361143  1.797813  -0.357361
C  10.098375  1.101000  -0.194813
C  7.582124  1.101000  -0.185602
C  5.067250  1.101000  -0.169960
C  12.623562  1.101000  -0.184635
