142
frame	686
H  17.693000  13.826000  0.000000
H  19.858000  12.564000  0.000000
H  21.106000  10.363000  0.000000
H  22.366000  5.656000  0.000000
H  22.367000  8.165000  0.000000
H  19.852000  1.261000  0.000000
H  17.690000  -0.000000  0.000000
H  21.104000  3.459000  0.000000
H  2.530000  -0.005000  0.000000
H  15.160000  -0.002000  0.000000
H  0.000000  -0.000000  0.000000
H  -2.163000  1.262000  0.000000
H  -3.415000  3.463000  0.000000
H  -4.677000  8.168000  0.000000
H  -4.678000  5.662000  0.000000
H  -2.159000  12.565000  0.000000
H  10.109000  13.837000  0.000000
H  7.585000  13.838000  0.000000
H  5.062000  13.833000  0.000000
H  2.535000  13.828000  0.000000
H  15.163000  13.830000  0.000000
H  0.007000  13.825000  0.000000
H  -3.412000  10.366000  0.000000
H  12.635000  13.835000  0.000000
H  10.108000  -0.010000  0.000000
H  7.583000  -0.012000  0.000000
H  5.058000  -0.011000  0.000000
H  12.631000  -0.009000  0.000000
C  16.391568  10.553000  0.479082
C  16.391568  12.029000  0.329364
C  17.670751  12.724286  0.266645
C  17.670751  8.371221  0.534910
C  17.670751  9.823667  0.512456
C  18.905140  10.553000  0.441774
C  18.905140  12.029000  0.273987
C  17.670751  4.000000  0.514773
C  17.670751  5.453610  0.530544
C  18.905140  6.197900  0.652340
C  18.905140  7.631998  0.645600
C  20.154752  8.371221  0.538985
C  20.154752  9.823667  0.337562
C  18.905140  3.272000  0.455242
C  20.154752  4.000000  0.353657
C  20.154752  5.453610  0.550702
C  21.411000  6.197900  0.468040
C  21.411000  7.631998  0.460020
C  17.670751  1.101000  0.273131
C  18.905140  1.797813  0.298535
C  5.067250  5.453610  0.201222
C  5.067250  4.000000  0.067446
C  3.815571  3.272000  0.079631
C  3.815571  1.797813  -0.048207
C  11.361143  3.272000  0.049663
C  2.546438  1.101000  0.063283
C  3.815571  7.631998  0.184023
C  3.815571  6.197900  0.173791
C  11.361143  7.631998  0.105084
C  2.546438  5.453610  0.243543
C  11.361143  6.197900  0.100826
C  2.546438  4.000000  0.295412
C  10.098375  5.453610  -0.075058
C  16.391568  3.272000  0.485590
C  1.302141  3.272000  0.488629
C  10.098375  4.000000  0.023311
C  16.391568  1.797813  0.312181
C  1.302141  1.797813  0.316957
C  8.830644  3.272000  0.082036
C  15.145562  1.101000  0.044040
C  0.021251  1.101000  0.260493
C  11.361143  12.029000  0.062430
C  2.546438  9.823667  0.341569
C  11.361143  10.553000  0.121127
C  2.546438  8.371221  0.251067
C  10.098375  9.823667  0.095139
C  16.391568  7.631998  0.388426
C  1.302141  7.631998  0.404822
C  10.098375  8.371221  -0.049129
C  16.391568  6.197900  0.389185
C  1.302141  6.197900  0.402820
C  15.145562  5.453610  0.211838
C  0.021251  5.453610  0.496126
C  8.830644  7.631998  -0.265070
C  8.830644  6.197900  -0.283764
C  15.145562  4.000000  0.279215
C  0.021251  4.000000  0.486882
C  7.582124  5.453610  -0.074728
C  13.876357  3.272000  0.062089
C  -1.214289  3.272000  0.425703
C  7.582124  4.000000  0.038366
C  13.876357  1.797813  -0.055363
C  -1.214289  1.797813  0.280138
C  10.098375  12.724286  0.014021
C  1.302141  10.553000  0.518563
C  8.830644  12.029000  0.054706
C  15.145562  9.823667  0.288069
C  0.021251  9.823667  0.494504
C  8.830644  10.553000  0.170750
C  15.145562  8.371221  0.203710
C  0.021251  8.371221  0.500496
C  7.582124  9.823667  0.118769
C  13.876357  7.631998  0.144056
C  -1.214289  7.631998  0.589950
C  7.582124  8.371221  -0.036530
C  13.876357  6.197900  0.148672
C  -1.214289  6.197900  0.597728
C  6.330357  7.631998  0.135869
C  12.623562  5.453610  0.200849
C  -2.463372  5.453610  0.443401
C  6.330357  6.197900  0.112751
C  12.623562  4.000000  0.045456
C  -2.463372  4.000000  0.288674
C  7.582124  12.724286  0.053179
C  13.876357  10.553000  0.104221
C  -1.214289  10.553000  0.422125
C  6.330357  12.029000  0.120455
C  12.623562  9.823667  0.098261
C  -2.463372  9.823667  0.264613
C  6.330357  10.553000  0.167205
C  12.623562  8.371221  0.191929
C  -2.463372  8.371221  0.440407
C  5.067250  9.823667  0.139751
C  -3.721000  7.631998  0.328230
C  5.067250  8.371221  0.224169
C  -3.721000  6.197900  0.343242
C  5.067250  12.724286  0.100239
C  3.815571  12.029000  0.060308
C  3.815571  10.553000  0.155857
C  2.546438  12.724286  0.141936
C  1.302141  12.029000  0.362238
C  6.330357  3.272000  0.073735
C  15.145562  12.724286  0.107565
C  0.021251  12.724286  0.303786
C  13.876357  12.029000  0.009869
C  -1.214289  12.029000  0.288469
C  12.623562  12.724286  0.049428
C  6.330357  1.797813  0.007566
C  8.830644  1.797813  -0.068852
C  11.361143  1.797813  -0.034588
C  10.098375  1.101000  -0.110318
C  7.582124  1.101000  -0.083258
C  5.067250  1.101000  -0.019497
C  12.623562  1.101000  -0.026092
