142
frame	423
H  17.693000  13.826000  0.000000
H  19.858000  12.564000  0.000000
H  21.106000  10.363000  0.000000
H  22.366000  5.656000  0.000000
H  22.367000  8.165000  0.000000
H  19.852000  1.261000  0.000000
H  17.690000  -0.000000  0.000000
H  21.104000  3.459000  0.000000
H  2.530000  -0.005000  0.000000
H  15.160000  -0.002000  0.000000
H  0.000000  -0.000000  0.000000
H  -2.163000  1.262000  0.000000
H  -3.415000  3.463000  0.000000
H  -4.677000  8.168000  0.000000
H  -4.678000  5.662000  0.000000
H  -2.159000  12.565000  0.000000
H  10.109000  13.837000  0.000000
H  7.585000  13.838000  0.000000
H  5.062000  13.833000  0.000000
H  2.535000  13.828000  0.000000
H  15.163000  13.830000  0.000000
H  0.007000  13.825000  0.000000
H  -3.412000  10.366000  0.000000
H  12.635000  13.835000  0.000000
H  10.108000  -0.010000  0.000000
H  7.583000  -0.012000  0.000000
H  5.058000  -0.011000  0.000000
H  12.631000  -0.009000  0.000000
C  16.391568  10.553000  -0.550739
C  16.391568  12.029000  -0.292563
C  17.670751  12.724286  -0.127176
C  17.670751  8.371221  -0.398676
C  17.670751  9.823667  -0.414974
C  18.905140  10.553000  -0.266880
C  18.905140  12.029000  -0.181566
C  17.670751  4.000000  -0.411729
C  17.670751  5.453610  -0.381604
C  18.905140  6.197900  -0.251061
C  18.905140  7.631998  -0.251717
C  20.154752  8.371221  -0.038095
C  20.154752  9.823667  -0.083839
C  18.905140  3.272000  -0.271711
C  20.154752  4.000000  -0.073581
C  20.154752  5.453610  -0.015452
C  21.411000  6.197900  0.234015
C  21.411000  7.631998  0.229594
C  17.670751  1.101000  -0.129235
C  18.905140  1.797813  -0.168540
C  5.067250  5.453610  -0.312995
C  5.067250  4.000000  -0.234040
C  3.815571  3.272000  -0.538128
C  3.815571  1.797813  -0.486604
C  11.361143  3.272000  -0.174239
C  2.546438  1.101000  -0.331816
C  3.815571  7.631998  -0.432864
C  3.815571  6.197900  -0.445184
C  11.361143  7.631998  -0.334593
C  2.546438  5.453610  -0.741444
C  11.361143  6.197900  -0.355731
C  2.546438  4.000000  -0.737070
C  10.098375  5.453610  -0.407270
C  16.391568  3.272000  -0.575872
C  1.302141  3.272000  -0.610976
C  10.098375  4.000000  -0.197584
C  16.391568  1.797813  -0.330376
C  1.302141  1.797813  -0.345677
C  8.830644  3.272000  -0.194554
C  15.145562  1.101000  -0.319894
C  0.021251  1.101000  -0.151932
C  11.361143  12.029000  -0.094638
C  2.546438  9.823667  -0.708431
C  11.361143  10.553000  -0.092676
C  2.546438  8.371221  -0.727719
C  10.098375  9.823667  -0.135706
C  16.391568  7.631998  -0.576855
C  1.302141  7.631998  -0.629316
C  10.098375  8.371221  -0.359696
C  16.391568  6.197900  -0.575117
C  1.302141  6.197900  -0.639278
C  15.145562  5.453610  -0.691899
C  0.021251  5.453610  -0.452241
C  8.830644  7.631998  -0.352018
C  8.830644  6.197900  -0.368430
C  15.145562  4.000000  -0.685998
C  0.021251  4.000000  -0.458408
C  7.582124  5.453610  -0.398015
C  13.876357  3.272000  -0.516473
C  -1.214289  3.272000  -0.307382
C  7.582124  4.000000  -0.188704
C  13.876357  1.797813  -0.487686
C  -1.214289  1.797813  -0.218704
C  10.098375  12.724286  0.119178
C  1.302141  10.553000  -0.580846
C  8.830644  12.029000  0.069686
C  15.145562  9.823667  -0.669426
C  0.021251  9.823667  -0.441800
C  8.830644  10.553000  -0.111762
C  15.145562  8.371221  -0.666926
C  0.021251  8.371221  -0.460709
C  7.582124  9.823667  -0.125915
C  13.876357  7.631998  -0.386182
C  -1.214289  7.631998  -0.343111
C  7.582124  8.371221  -0.349483
C  13.876357  6.197900  -0.398299
C  -1.214289  6.197900  -0.326295
C  6.330357  7.631998  -0.340788
C  12.623562  5.453610  -0.290038
C  -2.463372  5.453610  -0.128002
C  6.330357  6.197900  -0.356824
C  12.623562  4.000000  -0.216472
C  -2.463372  4.000000  -0.152412
C  7.582124  12.724286  0.117461
C  13.876357  10.553000  -0.480140
C  -1.214289  10.553000  -0.307678
C  6.330357  12.029000  -0.082814
C  12.623562  9.823667  -0.179953
C  -2.463372  9.823667  -0.154520
C  6.330357  10.553000  -0.099004
C  12.623562  8.371221  -0.255360
C  -2.463372  8.371221  -0.135635
C  5.067250  9.823667  -0.191446
C  -3.721000  7.631998  0.112206
C  5.067250  8.371221  -0.283363
C  -3.721000  6.197900  0.114519
C  5.067250  12.724286  -0.254950
C  3.815571  12.029000  -0.415237
C  3.815571  10.553000  -0.485715
C  2.546438  12.724286  -0.252935
C  1.302141  12.029000  -0.297722
C  6.330357  3.272000  -0.182301
C  15.145562  12.724286  -0.267404
C  0.021251  12.724286  -0.125904
C  13.876357  12.029000  -0.432645
C  -1.214289  12.029000  -0.213576
C  12.623562  12.724286  -0.289481
C  6.330357  1.797813  -0.197051
C  8.830644  1.797813  -0.045350
C  11.361143  1.797813  -0.198025
C  10.098375  1.101000  -0.029155
C  7.582124  1.101000  -0.015691
C  5.067250  1.101000  -0.382883
C  12.623562  1.101000  -0.391091
