142
frame	7
H  17.693000  13.826000  0.000000
H  19.858000  12.564000  0.000000
H  21.106000  10.363000  0.000000
H  22.366000  5.656000  0.000000
H  22.367000  8.165000  0.000000
H  19.852000  1.261000  0.000000
H  17.690000  -0.000000  0.000000
H  21.104000  3.459000  0.000000
H  2.530000  -0.005000  0.000000
H  15.160000  -0.002000  0.000000
H  0.000000  -0.000000  0.000000
H  -2.163000  1.262000  0.000000
H  -3.415000  3.463000  0.000000
H  -4.677000  8.168000  0.000000
H  -4.678000  5.662000  0.000000
H  -2.159000  12.565000  0.000000
H  10.109000  13.837000  0.000000
H  7.585000  13.838000  0.000000
H  5.062000  13.833000  0.000000
H  2.535000  13.828000  0.000000
H  15.163000  13.830000  0.000000
H  0.007000  13.825000  0.000000
H  -3.412000  10.366000  0.000000
H  12.635000  13.835000  0.000000
H  10.108000  -0.010000  0.000000
H  7.583000  -0.012000  0.000000
H  5.058000  -0.011000  0.000000
H  12.631000  -0.009000  0.000000
C  16.391568  10.553000  0.024500
C  16.391568  12.029000  0.012400
C  17.670751  12.724286  0.017137
C  17.670751  8.371221  0.062736
C  17.670751  9.823667  0.051969
C  18.905140  10.553000  0.074563
C  18.905140  12.029000  0.048345
C  17.670751  4.000000  0.051163
C  17.670751  5.453610  0.062348
C  18.905140  6.197900  0.106215
C  18.905140  7.631998  0.104377
C  20.154752  8.371221  0.145364
C  20.154752  9.823667  0.123931
C  18.905140  3.272000  0.083407
C  20.154752  4.000000  0.138927
C  20.154752  5.453610  0.153065
C  21.411000  6.197900  0.211114
C  21.411000  7.631998  0.205959
C  17.670751  1.101000  0.016091
C  18.905140  1.797813  0.061153
C  5.067250  5.453610  0.014305
C  5.067250  4.000000  0.009018
C  3.815571  3.272000  0.002076
C  3.815571  1.797813  -0.028025
C  11.361143  3.272000  -0.048624
C  2.546438  1.101000  -0.026967
C  3.815571  7.631998  0.049892
C  3.815571  6.197900  0.037759
C  11.361143  7.631998  0.063976
C  2.546438  5.453610  0.041783
C  11.361143  6.197900  0.063714
C  2.546438  4.000000  0.022574
C  10.098375  5.453610  0.300048
C  16.391568  3.272000  0.011465
C  1.302141  3.272000  0.024524
C  10.098375  4.000000  0.032172
C  16.391568  1.797813  -0.005710
C  1.302141  1.797813  0.002659
C  8.830644  3.272000  -0.027059
C  15.145562  1.101000  -0.040042
C  0.021251  1.101000  0.013888
C  11.361143  12.029000  0.029507
C  2.546438  9.823667  0.059311
C  11.361143  10.553000  0.021511
C  2.546438  8.371221  0.059181
C  10.098375  9.823667  0.082475
C  16.391568  7.631998  0.036766
C  1.302141  7.631998  0.059491
C  10.098375  8.371221  0.271265
C  16.391568  6.197900  0.034572
C  1.302141  6.197900  0.053310
C  15.145562  5.453610  0.007821
C  0.021251  5.453610  0.058344
C  8.830644  7.631998  0.692390
C  8.830644  6.197900  0.684977
C  15.145562  4.000000  -0.005256
C  0.021251  4.000000  0.048090
C  7.582124  5.453610  0.318647
C  13.876357  3.272000  -0.028010
C  -1.214289  3.272000  0.058533
C  7.582124  4.000000  0.046459
C  13.876357  1.797813  -0.050011
C  -1.214289  1.797813  0.042744
C  10.098375  12.724286  0.053259
C  1.302141  10.553000  0.054582
C  8.830644  12.029000  0.055938
C  15.145562  9.823667  0.016446
C  0.021251  9.823667  0.058924
C  8.830644  10.553000  0.060914
C  15.145562  8.371221  0.019256
C  0.021251  8.371221  0.063729
C  7.582124  9.823667  0.113617
C  13.876357  7.631998  0.004293
C  -1.214289  7.631998  0.072884
C  7.582124  8.371221  0.351762
C  13.876357  6.197900  -0.005865
C  -1.214289  6.197900  0.072712
C  6.330357  7.631998  0.111887
C  12.623562  5.453610  -0.022772
C  -2.463372  5.453610  0.085725
C  6.330357  6.197900  0.093777
C  12.623562  4.000000  -0.024641
C  -2.463372  4.000000  0.080175
C  7.582124  12.724286  0.073579
C  13.876357  10.553000  0.013982
C  -1.214289  10.553000  0.059659
C  6.330357  12.029000  0.065467
C  12.623562  9.823667  0.020997
C  -2.463372  9.823667  0.071175
C  6.330357  10.553000  0.058552
C  12.623562  8.371221  -0.002405
C  -2.463372  8.371221  0.080067
C  5.067250  9.823667  0.069691
C  -3.721000  7.631998  0.096016
C  5.067250  8.371221  0.044700
C  -3.721000  6.197900  0.100151
C  5.067250  12.724286  0.065856
C  3.815571  12.029000  0.059005
C  3.815571  10.553000  0.064076
C  2.546438  12.724286  0.048071
C  1.302141  12.029000  0.046773
C  6.330357  3.272000  -0.024465
C  15.145562  12.724286  0.001949
C  0.021251  12.724286  0.039986
C  13.876357  12.029000  0.009034
C  -1.214289  12.029000  0.046891
C  12.623562  12.724286  0.018004
C  6.330357  1.797813  -0.053491
C  8.830644  1.797813  -0.069963
C  11.361143  1.797813  -0.071507
C  10.098375  1.101000  -0.079575
C  7.582124  1.101000  -0.070283
C  5.067250  1.101000  -0.054015
C  12.623562  1.101000  -0.073830
