142
frame	352
H  17.693000  13.826000  0.000000
H  19.858000  12.564000  0.000000
H  21.106000  10.363000  0.000000
H  22.366000  5.656000  0.000000
H  22.367000  8.165000  0.000000
H  19.852000  1.261000  0.000000
H  17.690000  -0.000000  0.000000
H  21.104000  3.459000  0.000000
H  2.530000  -0.005000  0.000000
H  15.160000  -0.002000  0.000000
H  0.000000  -0.000000  0.000000
H  -2.163000  1.262000  0.000000
H  -3.415000  3.463000  0.000000
H  -4.677000  8.168000  0.000000
H  -4.678000  5.662000  0.000000
H  -2.159000  12.565000  0.000000
H  10.109000  13.837000  0.000000
H  7.585000  13.838000  0.000000
H  5.062000  13.833000  0.000000
H  2.535000  13.828000  0.000000
H  15.163000  13.830000  0.000000
H  0.007000  13.825000  0.000000
H  -3.412000  10.366000  0.000000
H  12.635000  13.835000  0.000000
H  10.108000  -0.010000  0.000000
H  7.583000  -0.012000  0.000000
H  5.058000  -0.011000  0.000000
H  12.631000  -0.009000  0.000000
C  16.391568  10.553000  -0.206126
C  16.391568  12.029000  -0.108669
C  17.670751  12.724286  -0.137343
C  17.670751  8.371221  -0.533584
C  17.670751  9.823667  -0.250255
C  18.905140  10.553000  -0.177731
C  18.905140  12.029000  -0.129149
C  17.670751  4.000000  -0.268955
C  17.670751  5.453610  -0.533299
C  18.905140  6.197900  -0.643863
C  18.905140  7.631998  -0.663905
C  20.154752  8.371221  -0.329613
C  20.154752  9.823667  -0.143106
C  18.905140  3.272000  -0.162406
C  20.154752  4.000000  -0.146303
C  20.154752  5.453610  -0.327778
C  21.411000  6.197900  0.019093
C  21.411000  7.631998  0.021966
C  17.670751  1.101000  -0.120065
C  18.905140  1.797813  -0.113944
C  5.067250  5.453610  -0.535280
C  5.067250  4.000000  -0.477615
C  3.815571  3.272000  -0.443977
C  3.815571  1.797813  -0.192079
C  11.361143  3.272000  -0.472031
C  2.546438  1.101000  -0.070982
C  3.815571  7.631998  -0.515985
C  3.815571  6.197900  -0.539416
C  11.361143  7.631998  -0.521564
C  2.546438  5.453610  -0.572899
C  11.361143  6.197900  -0.534233
C  2.546438  4.000000  -0.492177
C  10.098375  5.453610  -0.350712
C  16.391568  3.272000  -0.218952
C  1.302141  3.272000  -0.271976
C  10.098375  4.000000  -0.518697
C  16.391568  1.797813  -0.123558
C  1.302141  1.797813  -0.172422
C  8.830644  3.272000  -0.646710
C  15.145562  1.101000  -0.063841
C  0.021251  1.101000  -0.161857
C  11.361143  12.029000  -0.210620
C  2.546438  9.823667  -0.440991
C  11.361143  10.553000  -0.399802
C  2.546438  8.371221  -0.545576
C  10.098375  9.823667  -0.461884
C  16.391568  7.631998  -0.599204
C  1.302141  7.631998  -0.662781
C  10.098375  8.371221  -0.315640
C  16.391568  6.197900  -0.615119
C  1.302141  6.197900  -0.669643
C  15.145562  5.453610  -0.525445
C  0.021251  5.453610  -0.594029
C  8.830644  7.631998  -0.120198
C  8.830644  6.197900  -0.140314
C  15.145562  4.000000  -0.451655
C  0.021251  4.000000  -0.320873
C  7.582124  5.453610  -0.363830
C  13.876357  3.272000  -0.426797
C  -1.214289  3.272000  -0.242523
C  7.582124  4.000000  -0.540781
C  13.876357  1.797813  -0.194130
C  -1.214289  1.797813  -0.143055
C  10.098375  12.724286  -0.195565
C  1.302141  10.553000  -0.227251
C  8.830644  12.029000  -0.335551
C  15.145562  9.823667  -0.420454
C  0.021251  9.823667  -0.308128
C  8.830644  10.553000  -0.552950
C  15.145562  8.371221  -0.498773
C  0.021251  8.371221  -0.586373
C  7.582124  9.823667  -0.454976
C  13.876357  7.631998  -0.503353
C  -1.214289  7.631998  -0.755206
C  7.582124  8.371221  -0.312713
C  13.876357  6.197900  -0.520751
C  -1.214289  6.197900  -0.755800
C  6.330357  7.631998  -0.527199
C  12.623562  5.453610  -0.525769
C  -2.463372  5.453610  -0.416847
C  6.330357  6.197900  -0.545243
C  12.623562  4.000000  -0.457689
C  -2.463372  4.000000  -0.218614
C  7.582124  12.724286  -0.185396
C  13.876357  10.553000  -0.382804
C  -1.214289  10.553000  -0.233843
C  6.330357  12.029000  -0.196323
C  12.623562  9.823667  -0.410439
C  -2.463372  9.823667  -0.226985
C  6.330357  10.553000  -0.396882
C  12.623562  8.371221  -0.493527
C  -2.463372  8.371221  -0.416905
C  5.067250  9.823667  -0.417281
C  -3.721000  7.631998  -0.108251
C  5.067250  8.371221  -0.507013
C  -3.721000  6.197900  -0.102980
C  5.067250  12.724286  -0.071131
C  3.815571  12.029000  -0.094384
C  3.815571  10.553000  -0.390555
C  2.546438  12.724286  0.002825
C  1.302141  12.029000  -0.119676
C  6.330357  3.272000  -0.483997
C  15.145562  12.724286  -0.010100
C  0.021251  12.724286  -0.136430
C  13.876357  12.029000  -0.125310
C  -1.214289  12.029000  -0.157269
C  12.623562  12.724286  -0.105548
C  6.330357  1.797813  -0.319934
C  8.830644  1.797813  -0.455892
C  11.361143  1.797813  -0.318273
C  10.098375  1.101000  -0.332948
C  7.582124  1.101000  -0.328857
C  5.067250  1.101000  -0.197683
C  12.623562  1.101000  -0.204134
