142
frame	344
H  17.693000  13.826000  0.000000
H  19.858000  12.564000  0.000000
H  21.106000  10.363000  0.000000
H  22.366000  5.656000  0.000000
H  22.367000  8.165000  0.000000
H  19.852000  1.261000  0.000000
H  17.690000  -0.000000  0.000000
H  21.104000  3.459000  0.000000
H  2.530000  -0.005000  0.000000
H  15.160000  -0.002000  0.000000
H  0.000000  -0.000000  0.000000
H  -2.163000  1.262000  0.000000
H  -3.415000  3.463000  0.000000
H  -4.677000  8.168000  0.000000
H  -4.678000  5.662000  0.000000
H  -2.159000  12.565000  0.000000
H  10.109000  13.837000  0.000000
H  7.585000  13.838000  0.000000
H  5.062000  13.833000  0.000000
H  2.535000  13.828000  0.000000
H  15.163000  13.830000  0.000000
H  0.007000  13.825000  0.000000
H  -3.412000  10.366000  0.000000
H  12.635000  13.835000  0.000000
H  10.108000  -0.010000  0.000000
H  7.583000  -0.012000  0.000000
H  5.058000  -0.011000  0.000000
H  12.631000  -0.009000  0.000000
C  16.391568  10.553000  -0.213555
C  16.391568  12.029000  -0.030976
C  17.670751  12.724286  -0.050041
C  17.670751  8.371221  -0.552628
C  17.670751  9.823667  -0.271960
C  18.905140  10.553000  -0.140347
C  18.905140  12.029000  -0.040551
C  17.670751  4.000000  -0.286752
C  17.670751  5.453610  -0.548426
C  18.905140  6.197900  -0.597937
C  18.905140  7.631998  -0.603899
C  20.154752  8.371221  -0.325890
C  20.154752  9.823667  -0.156806
C  18.905140  3.272000  -0.125711
C  20.154752  4.000000  -0.160227
C  20.154752  5.453610  -0.316391
C  21.411000  6.197900  0.007196
C  21.411000  7.631998  0.015897
C  17.670751  1.101000  -0.031175
C  18.905140  1.797813  -0.019804
C  5.067250  5.453610  -0.516009
C  5.067250  4.000000  -0.375174
C  3.815571  3.272000  -0.431839
C  3.815571  1.797813  -0.234569
C  11.361143  3.272000  -0.457450
C  2.546438  1.101000  -0.049013
C  3.815571  7.631998  -0.565099
C  3.815571  6.197900  -0.581086
C  11.361143  7.631998  -0.486789
C  2.546438  5.453610  -0.583008
C  11.361143  6.197900  -0.502160
C  2.546438  4.000000  -0.477807
C  10.098375  5.453610  -0.471365
C  16.391568  3.272000  -0.230394
C  1.302141  3.272000  -0.280957
C  10.098375  4.000000  -0.531400
C  16.391568  1.797813  -0.048124
C  1.302141  1.797813  -0.090085
C  8.830644  3.272000  -0.630377
C  15.145562  1.101000  -0.054297
C  0.021251  1.101000  -0.081932
C  11.361143  12.029000  -0.271899
C  2.546438  9.823667  -0.428352
C  11.361143  10.553000  -0.382249
C  2.546438  8.371221  -0.564407
C  10.098375  9.823667  -0.475620
C  16.391568  7.631998  -0.604737
C  1.302141  7.631998  -0.654907
C  10.098375  8.371221  -0.428731
C  16.391568  6.197900  -0.604627
C  1.302141  6.197900  -0.665785
C  15.145562  5.453610  -0.547953
C  0.021251  5.453610  -0.609978
C  8.830644  7.631998  -0.242931
C  8.830644  6.197900  -0.265879
C  15.145562  4.000000  -0.442305
C  0.021251  4.000000  -0.339566
C  7.582124  5.453610  -0.490013
C  13.876357  3.272000  -0.411412
C  -1.214289  3.272000  -0.191694
C  7.582124  4.000000  -0.542000
C  13.876357  1.797813  -0.229592
C  -1.214289  1.797813  -0.059402
C  10.098375  12.724286  -0.162740
C  1.302141  10.553000  -0.236099
C  8.830644  12.029000  -0.285484
C  15.145562  9.823667  -0.409793
C  0.021251  9.823667  -0.323371
C  8.830644  10.553000  -0.543305
C  15.145562  8.371221  -0.511631
C  0.021251  8.371221  -0.604091
C  7.582124  9.823667  -0.467253
C  13.876357  7.631998  -0.539029
C  -1.214289  7.631998  -0.701702
C  7.582124  8.371221  -0.428450
C  13.876357  6.197900  -0.561013
C  -1.214289  6.197900  -0.707607
C  6.330357  7.631998  -0.484972
C  12.623562  5.453610  -0.507246
C  -2.463372  5.453610  -0.418611
C  6.330357  6.197900  -0.503211
C  12.623562  4.000000  -0.348756
C  -2.463372  4.000000  -0.234184
C  7.582124  12.724286  -0.155059
C  13.876357  10.553000  -0.361766
C  -1.214289  10.553000  -0.193313
C  6.330357  12.029000  -0.265205
C  12.623562  9.823667  -0.312385
C  -2.463372  9.823667  -0.248821
C  6.330357  10.553000  -0.380013
C  12.623562  8.371221  -0.468144
C  -2.463372  8.371221  -0.414094
C  5.067250  9.823667  -0.315217
C  -3.721000  7.631998  -0.117724
C  5.067250  8.371221  -0.476484
C  -3.721000  6.197900  -0.108286
C  5.067250  12.724286  -0.141785
C  3.815571  12.029000  -0.138749
C  3.815571  10.553000  -0.370234
C  2.546438  12.724286  0.021793
C  1.302141  12.029000  -0.038173
C  6.330357  3.272000  -0.470336
C  15.145562  12.724286  0.001133
C  0.021251  12.724286  -0.051647
C  13.876357  12.029000  -0.174669
C  -1.214289  12.029000  -0.061428
C  12.623562  12.724286  -0.175965
C  6.330357  1.797813  -0.382553
C  8.830644  1.797813  -0.402266
C  11.361143  1.797813  -0.377028
C  10.098375  1.101000  -0.301455
C  7.582124  1.101000  -0.303738
C  5.067250  1.101000  -0.270311
C  12.623562  1.101000  -0.282291
