142
frame	292
H  17.693000  13.826000  0.000000
H  19.858000  12.564000  0.000000
H  21.106000  10.363000  0.000000
H  22.366000  5.656000  0.000000
H  22.367000  8.165000  0.000000
H  19.852000  1.261000  0.000000
H  17.690000  -0.000000  0.000000
H  21.104000  3.459000  0.000000
H  2.530000  -0.005000  0.000000
H  15.160000  -0.002000  0.000000
H  0.000000  -0.000000  0.000000
H  -2.163000  1.262000  0.000000
H  -3.415000  3.463000  0.000000
H  -4.677000  8.168000  0.000000
H  -4.678000  5.662000  0.000000
H  -2.159000  12.565000  0.000000
H  10.109000  13.837000  0.000000
H  7.585000  13.838000  0.000000
H  5.062000  13.833000  0.000000
H  2.535000  13.828000  0.000000
H  15.163000  13.830000  0.000000
H  0.007000  13.825000  0.000000
H  -3.412000  10.366000  0.000000
H  12.635000  13.835000  0.000000
H  10.108000  -0.010000  0.000000
H  7.583000  -0.012000  0.000000
H  5.058000  -0.011000  0.000000
H  12.631000  -0.009000  0.000000
C  16.391568  10.553000  -0.209696
C  16.391568  12.029000  -0.118129
C  17.670751  12.724286  -0.117797
C  17.670751  8.371221  -0.370295
C  17.670751  9.823667  -0.106105
C  18.905140  10.553000  0.031182
C  18.905140  12.029000  -0.034446
C  17.670751  4.000000  -0.106013
C  17.670751  5.453610  -0.373943
C  18.905140  6.197900  -0.260725
C  18.905140  7.631998  -0.267932
C  20.154752  8.371221  -0.033158
C  20.154752  9.823667  0.064421
C  18.905140  3.272000  0.032777
C  20.154752  4.000000  0.083431
C  20.154752  5.453610  -0.009279
C  21.411000  6.197900  0.118273
C  21.411000  7.631998  0.122028
C  17.670751  1.101000  -0.127528
C  18.905140  1.797813  -0.026303
C  5.067250  5.453610  -0.556443
C  5.067250  4.000000  -0.476762
C  3.815571  3.272000  -0.453191
C  3.815571  1.797813  -0.242132
C  11.361143  3.272000  -0.375406
C  2.546438  1.101000  -0.136125
C  3.815571  7.631998  -0.402307
C  3.815571  6.197900  -0.423380
C  11.361143  7.631998  -0.722361
C  2.546438  5.453610  -0.503205
C  11.361143  6.197900  -0.740665
C  2.546438  4.000000  -0.449289
C  10.098375  5.453610  -0.799809
C  16.391568  3.272000  -0.223513
C  1.302141  3.272000  -0.248784
C  10.098375  4.000000  -0.551725
C  16.391568  1.797813  -0.143032
C  1.302141  1.797813  -0.151164
C  8.830644  3.272000  -0.421249
C  15.145562  1.101000  -0.131592
C  0.021251  1.101000  -0.119113
C  11.361143  12.029000  -0.125148
C  2.546438  9.823667  -0.407850
C  11.361143  10.553000  -0.289251
C  2.546438  8.371221  -0.468008
C  10.098375  9.823667  -0.474631
C  16.391568  7.631998  -0.558010
C  1.302141  7.631998  -0.599975
C  10.098375  8.371221  -0.773889
C  16.391568  6.197900  -0.553844
C  1.302141  6.197900  -0.607013
C  15.145562  5.453610  -0.459773
C  0.021251  5.453610  -0.422538
C  8.830644  7.631998  -0.853858
C  8.830644  6.197900  -0.867933
C  15.145562  4.000000  -0.423895
C  0.021251  4.000000  -0.154526
C  7.582124  5.453610  -0.805695
C  13.876357  3.272000  -0.441908
C  -1.214289  3.272000  -0.023630
C  7.582124  4.000000  -0.546182
C  13.876357  1.797813  -0.221374
C  -1.214289  1.797813  -0.037276
C  10.098375  12.724286  -0.027453
C  1.302141  10.553000  -0.213224
C  8.830644  12.029000  -0.170356
C  15.145562  9.823667  -0.409073
C  0.021251  9.823667  -0.138512
C  8.830644  10.553000  -0.328216
C  15.145562  8.371221  -0.447281
C  0.021251  8.371221  -0.433711
C  7.582124  9.823667  -0.462621
C  13.876357  7.631998  -0.393163
C  -1.214289  7.631998  -0.350827
C  7.582124  8.371221  -0.776850
C  13.876357  6.197900  -0.401186
C  -1.214289  6.197900  -0.346854
C  6.330357  7.631998  -0.727982
C  12.623562  5.453610  -0.543254
C  -2.463372  5.453610  -0.115686
C  6.330357  6.197900  -0.740292
C  12.623562  4.000000  -0.467817
C  -2.463372  4.000000  -0.006652
C  7.582124  12.724286  -0.005077
C  13.876357  10.553000  -0.386308
C  -1.214289  10.553000  -0.014506
C  6.330357  12.029000  -0.108448
C  12.623562  9.823667  -0.404786
C  -2.463372  9.823667  0.002050
C  6.330357  10.553000  -0.281920
C  12.623562  8.371221  -0.520755
C  -2.463372  8.371221  -0.119056
C  5.067250  9.823667  -0.414678
C  -3.721000  7.631998  -0.018029
C  5.067250  8.371221  -0.516419
C  -3.721000  6.197900  -0.000788
C  5.067250  12.724286  0.027843
C  3.815571  12.029000  -0.146880
C  3.815571  10.553000  -0.380626
C  2.546438  12.724286  -0.052008
C  1.302141  12.029000  -0.100773
C  6.330357  3.272000  -0.383348
C  15.145562  12.724286  -0.073258
C  0.021251  12.724286  -0.097586
C  13.876357  12.029000  -0.165346
C  -1.214289  12.029000  -0.030836
C  12.623562  12.724286  -0.005444
C  6.330357  1.797813  -0.225183
C  8.830644  1.797813  -0.294076
C  11.361143  1.797813  -0.222911
C  10.098375  1.101000  -0.151304
C  7.582124  1.101000  -0.148036
C  5.067250  1.101000  -0.100977
C  12.623562  1.101000  -0.088390
