142
frame	89
H  17.693000  13.826000  0.000000
H  19.858000  12.564000  0.000000
H  21.106000  10.363000  0.000000
H  22.366000  5.656000  0.000000
H  22.367000  8.165000  0.000000
H  19.852000  1.261000  0.000000
H  17.690000  -0.000000  0.000000
H  21.104000  3.459000  0.000000
H  2.530000  -0.005000  0.000000
H  15.160000  -0.002000  0.000000
H  0.000000  -0.000000  0.000000
H  -2.163000  1.262000  0.000000
H  -3.415000  3.463000  0.000000
H  -4.677000  8.168000  0.000000
H  -4.678000  5.662000  0.000000
H  -2.159000  12.565000  0.000000
H  10.109000  13.837000  0.000000
H  7.585000  13.838000  0.000000
H  5.062000  13.833000  0.000000
H  2.535000  13.828000  0.000000
H  15.163000  13.830000  0.000000
H  0.007000  13.825000  0.000000
H  -3.412000  10.366000  0.000000
H  12.635000  13.835000  0.000000
H  10.108000  -0.010000  0.000000
H  7.583000  -0.012000  0.000000
H  5.058000  -0.011000  0.000000
H  12.631000  -0.009000  0.000000
C  16.391568  10.553000  -0.002115
C  16.391568  12.029000  -0.066137
C  17.670751  12.724286  0.008238
C  17.670751  8.371221  0.028138
C  17.670751  9.823667  -0.019724
C  18.905140  10.553000  0.068646
C  18.905140  12.029000  0.082720
C  17.670751  4.000000  -0.018774
C  17.670751  5.453610  0.030744
C  18.905140  6.197900  0.062269
C  18.905140  7.631998  0.058537
C  20.154752  8.371221  0.140560
C  20.154752  9.823667  0.147235
C  18.905140  3.272000  0.071083
C  20.154752  4.000000  0.157029
C  20.154752  5.453610  0.147070
C  21.411000  6.197900  0.216646
C  21.411000  7.631998  0.213431
C  17.670751  1.101000  -0.002269
C  18.905140  1.797813  0.089960
C  5.067250  5.453610  -0.312392
C  5.067250  4.000000  -0.172657
C  3.815571  3.272000  0.140948
C  3.815571  1.797813  0.112751
C  11.361143  3.272000  -0.256354
C  2.546438  1.101000  -0.041191
C  3.815571  7.631998  -0.012989
C  3.815571  6.197900  -0.028942
C  11.361143  7.631998  -0.533578
C  2.546438  5.453610  0.214594
C  11.361143  6.197900  -0.561887
C  2.546438  4.000000  0.211134
C  10.098375  5.453610  -0.524492
C  16.391568  3.272000  -0.005558
C  1.302141  3.272000  0.002591
C  10.098375  4.000000  -0.473085
C  16.391568  1.797813  -0.088735
C  1.302141  1.797813  -0.084392
C  8.830644  3.272000  -0.435832
C  15.145562  1.101000  -0.053519
C  0.021251  1.101000  -0.005259
C  11.361143  12.029000  0.099902
C  2.546438  9.823667  0.244941
C  11.361143  10.553000  -0.190568
C  2.546438  8.371221  0.229761
C  10.098375  9.823667  -0.417966
C  16.391568  7.631998  0.148689
C  1.302141  7.631998  0.172188
C  10.098375  8.371221  -0.515295
C  16.391568  6.197900  0.138660
C  1.302141  6.197900  0.166993
C  15.145562  5.453610  0.179630
C  0.021251  5.453610  0.022265
C  8.830644  7.631998  -0.584316
C  8.830644  6.197900  -0.606556
C  15.145562  4.000000  0.176450
C  0.021251  4.000000  -0.029959
C  7.582124  5.453610  -0.524903
C  13.876357  3.272000  0.109302
C  -1.214289  3.272000  0.045267
C  7.582124  4.000000  -0.472660
C  13.876357  1.797813  0.088002
C  -1.214289  1.797813  0.072416
C  10.098375  12.724286  0.112100
C  1.302141  10.553000  0.038868
C  8.830644  12.029000  0.004231
C  15.145562  9.823667  0.199273
C  0.021251  9.823667  -0.012909
C  8.830644  10.553000  -0.366360
C  15.145562  8.371221  0.198150
C  0.021251  8.371221  0.030904
C  7.582124  9.823667  -0.408533
C  13.876357  7.631998  -0.048890
C  -1.214289  7.631998  0.029888
C  7.582124  8.371221  -0.487701
C  13.876357  6.197900  -0.045160
C  -1.214289  6.197900  0.027597
C  6.330357  7.631998  -0.528947
C  12.623562  5.453610  -0.329537
C  -2.463372  5.453610  0.082429
C  6.330357  6.197900  -0.535418
C  12.623562  4.000000  -0.186247
C  -2.463372  4.000000  0.102700
C  7.582124  12.724286  0.122478
C  13.876357  10.553000  0.160389
C  -1.214289  10.553000  0.049637
C  6.330357  12.029000  0.129250
C  12.623562  9.823667  -0.140609
C  -2.463372  9.823667  0.094751
C  6.330357  10.553000  -0.157798
C  12.623562  8.371221  -0.308267
C  -2.463372  8.371221  0.077851
C  5.067250  9.823667  -0.121331
C  -3.721000  7.631998  0.105354
C  5.067250  8.371221  -0.280945
C  -3.721000  6.197900  0.109623
C  5.067250  12.724286  0.153935
C  3.815571  12.029000  0.196593
C  3.815571  10.553000  0.188782
C  2.546438  12.724286  0.037946
C  1.302141  12.029000  -0.035259
C  6.330357  3.272000  -0.237933
C  15.145562  12.724286  -0.022246
C  0.021251  12.724286  0.021811
C  13.876357  12.029000  0.135891
C  -1.214289  12.029000  0.077617
C  12.623562  12.724286  0.117212
C  6.330357  1.797813  0.029134
C  8.830644  1.797813  -0.110859
C  11.361143  1.797813  0.006983
C  10.098375  1.101000  -0.024234
C  7.582124  1.101000  -0.014983
C  5.067250  1.101000  0.048372
C  12.623562  1.101000  0.032453
