142
frame	267
H  17.693000  13.826000  0.000000
H  19.858000  12.564000  0.000000
H  21.106000  10.363000  0.000000
H  22.366000  5.656000  0.000000
H  22.367000  8.165000  0.000000
H  19.852000  1.261000  0.000000
H  17.690000  -0.000000  0.000000
H  21.104000  3.459000  0.000000
H  2.530000  -0.005000  0.000000
H  15.160000  -0.002000  0.000000
H  0.000000  -0.000000  0.000000
H  -2.163000  1.262000  0.000000
H  -3.415000  3.463000  0.000000
H  -4.677000  8.168000  0.000000
H  -4.678000  5.662000  0.000000
H  -2.159000  12.565000  0.000000
H  10.109000  13.837000  0.000000
H  7.585000  13.838000  0.000000
H  5.062000  13.833000  0.000000
H  2.535000  13.828000  0.000000
H  15.163000  13.830000  0.000000
H  0.007000  13.825000  0.000000
H  -3.412000  10.366000  0.000000
H  12.635000  13.835000  0.000000
H  10.108000  -0.010000  0.000000
H  7.583000  -0.012000  0.000000
H  5.058000  -0.011000  0.000000
H  12.631000  -0.009000  0.000000
C  16.391568  10.553000  -0.274840
C  16.391568  12.029000  -0.288282
C  17.670751  12.724286  -0.234008
C  17.670751  8.371221  -0.126800
C  17.670751  9.823667  -0.140439
C  18.905140  10.553000  -0.049134
C  18.905140  12.029000  -0.121567
C  17.670751  4.000000  -0.144336
C  17.670751  5.453610  -0.105978
C  18.905140  6.197900  -0.094938
C  18.905140  7.631998  -0.099635
C  20.154752  8.371221  0.120553
C  20.154752  9.823667  0.123096
C  18.905140  3.272000  -0.043503
C  20.154752  4.000000  0.124000
C  20.154752  5.453610  0.121400
C  21.411000  6.197900  0.313169
C  21.411000  7.631998  0.295941
C  17.670751  1.101000  -0.229883
C  18.905140  1.797813  -0.117193
C  5.067250  5.453610  -0.724452
C  5.067250  4.000000  -0.514305
C  3.815571  3.272000  -0.366375
C  3.815571  1.797813  -0.147554
C  11.361143  3.272000  -0.435129
C  2.546438  1.101000  -0.167187
C  3.815571  7.631998  -0.559594
C  3.815571  6.197900  -0.569854
C  11.361143  7.631998  -0.854079
C  2.546438  5.453610  -0.383609
C  11.361143  6.197900  -0.863284
C  2.546438  4.000000  -0.400394
C  10.098375  5.453610  -0.773932
C  16.391568  3.272000  -0.291950
C  1.302141  3.272000  -0.319282
C  10.098375  4.000000  -0.601100
C  16.391568  1.797813  -0.315086
C  1.302141  1.797813  -0.320306
C  8.830644  3.272000  -0.558054
C  15.145562  1.101000  -0.167092
C  0.021251  1.101000  -0.247353
C  11.361143  12.029000  0.003342
C  2.546438  9.823667  -0.344155
C  11.361143  10.553000  -0.365286
C  2.546438  8.371221  -0.369320
C  10.098375  9.823667  -0.541653
C  16.391568  7.631998  -0.179926
C  1.302141  7.631998  -0.212131
C  10.098375  8.371221  -0.735338
C  16.391568  6.197900  -0.179304
C  1.302141  6.197900  -0.224574
C  15.145562  5.453610  -0.368969
C  0.021251  5.453610  -0.181158
C  8.830644  7.631998  -0.721711
C  8.830644  6.197900  -0.737316
C  15.145562  4.000000  -0.368001
C  0.021251  4.000000  -0.177387
C  7.582124  5.453610  -0.782576
C  13.876357  3.272000  -0.342000
C  -1.214289  3.272000  -0.066044
C  7.582124  4.000000  -0.612016
C  13.876357  1.797813  -0.145789
C  -1.214289  1.797813  -0.140704
C  10.098375  12.724286  -0.004487
C  1.302141  10.553000  -0.279788
C  8.830644  12.029000  -0.070843
C  15.145562  9.823667  -0.343989
C  0.021251  9.823667  -0.163171
C  8.830644  10.553000  -0.459394
C  15.145562  8.371221  -0.354892
C  0.021251  8.371221  -0.158090
C  7.582124  9.823667  -0.546479
C  13.876357  7.631998  -0.544026
C  -1.214289  7.631998  -0.173086
C  7.582124  8.371221  -0.731903
C  13.876357  6.197900  -0.556891
C  -1.214289  6.197900  -0.180470
C  6.330357  7.631998  -0.859565
C  12.623562  5.453610  -0.718773
C  -2.463372  5.453610  0.024025
C  6.330357  6.197900  -0.877009
C  12.623562  4.000000  -0.502860
C  -2.463372  4.000000  0.062757
C  7.582124  12.724286  0.008685
C  13.876357  10.553000  -0.305168
C  -1.214289  10.553000  -0.066366
C  6.330357  12.029000  0.036812
C  12.623562  9.823667  -0.469440
C  -2.463372  9.823667  0.049223
C  6.330357  10.553000  -0.350334
C  12.623562  8.371221  -0.682365
C  -2.463372  8.371221  0.030649
C  5.067250  9.823667  -0.450982
C  -3.721000  7.631998  0.194594
C  5.067250  8.371221  -0.694976
C  -3.721000  6.197900  0.179770
C  5.067250  12.724286  0.050980
C  3.815571  12.029000  -0.052109
C  3.815571  10.553000  -0.299594
C  2.546438  12.724286  -0.093133
C  1.302141  12.029000  -0.275254
C  6.330357  3.272000  -0.432227
C  15.145562  12.724286  -0.120151
C  0.021251  12.724286  -0.219240
C  13.876357  12.029000  -0.079433
C  -1.214289  12.029000  -0.140860
C  12.623562  12.724286  0.019286
C  6.330357  1.797813  -0.097920
C  8.830644  1.797813  -0.199969
C  11.361143  1.797813  -0.103568
C  10.098375  1.101000  -0.147647
C  7.582124  1.101000  -0.144531
C  5.067250  1.101000  -0.077021
C  12.623562  1.101000  -0.090975
