142
frame	699
H  17.693000  13.826000  0.000000
H  19.858000  12.564000  0.000000
H  21.106000  10.363000  0.000000
H  22.366000  5.656000  0.000000
H  22.367000  8.165000  0.000000
H  19.852000  1.261000  0.000000
H  17.690000  -0.000000  0.000000
H  21.104000  3.459000  0.000000
H  2.530000  -0.005000  0.000000
H  15.160000  -0.002000  0.000000
H  0.000000  -0.000000  0.000000
H  -2.163000  1.262000  0.000000
H  -3.415000  3.463000  0.000000
H  -4.677000  8.168000  0.000000
H  -4.678000  5.662000  0.000000
H  -2.159000  12.565000  0.000000
H  10.109000  13.837000  0.000000
H  7.585000  13.838000  0.000000
H  5.062000  13.833000  0.000000
H  2.535000  13.828000  0.000000
H  15.163000  13.830000  0.000000
H  0.007000  13.825000  0.000000
H  -3.412000  10.366000  0.000000
H  12.635000  13.835000  0.000000
H  10.108000  -0.010000  0.000000
H  7.583000  -0.012000  0.000000
H  5.058000  -0.011000  0.000000
H  12.631000  -0.009000  0.000000
C  16.391568  10.553000  0.490117
C  16.391568  12.029000  0.449496
C  17.670751  12.724286  0.263886
C  17.670751  8.371221  0.620717
C  17.670751  9.823667  0.701108
C  18.905140  10.553000  0.530286
C  18.905140  12.029000  0.251531
C  17.670751  4.000000  0.697097
C  17.670751  5.453610  0.619954
C  18.905140  6.197900  0.584146
C  18.905140  7.631998  0.570076
C  20.154752  8.371221  0.524574
C  20.154752  9.823667  0.397742
C  18.905140  3.272000  0.534797
C  20.154752  4.000000  0.407287
C  20.154752  5.453610  0.535248
C  21.411000  6.197900  0.543848
C  21.411000  7.631998  0.527605
C  17.670751  1.101000  0.275305
C  18.905140  1.797813  0.269383
C  5.067250  5.453610  0.247310
C  5.067250  4.000000  0.166314
C  3.815571  3.272000  0.059897
C  3.815571  1.797813  -0.016455
C  11.361143  3.272000  0.116232
C  2.546438  1.101000  0.130818
C  3.815571  7.631998  0.228358
C  3.815571  6.197900  0.226422
C  11.361143  7.631998  0.153444
C  2.546438  5.453610  0.152029
C  11.361143  6.197900  0.144583
C  2.546438  4.000000  0.198561
C  10.098375  5.453610  -0.033761
C  16.391568  3.272000  0.492683
C  1.302141  3.272000  0.492174
C  10.098375  4.000000  0.071741
C  16.391568  1.797813  0.434838
C  1.302141  1.797813  0.435923
C  8.830644  3.272000  0.065344
C  15.145562  1.101000  0.120080
C  0.021251  1.101000  0.256105
C  11.361143  12.029000  0.041542
C  2.546438  9.823667  0.221349
C  11.361143  10.553000  0.196625
C  2.546438  8.371221  0.170333
C  10.098375  9.823667  0.137163
C  16.391568  7.631998  0.362605
C  1.302141  7.631998  0.378492
C  10.098375  8.371221  -0.003680
C  16.391568  6.197900  0.378602
C  1.302141  6.197900  0.369551
C  15.145562  5.453610  0.117693
C  0.021251  5.453610  0.594768
C  8.830644  7.631998  -0.166617
C  8.830644  6.197900  -0.186569
C  15.145562  4.000000  0.166747
C  0.021251  4.000000  0.686698
C  7.582124  5.453610  -0.024917
C  13.876357  3.272000  0.051357
C  -1.214289  3.272000  0.508039
C  7.582124  4.000000  0.061747
C  13.876357  1.797813  -0.031108
C  -1.214289  1.797813  0.257521
C  10.098375  12.724286  0.081402
C  1.302141  10.553000  0.541571
C  8.830644  12.029000  0.095587
C  15.145562  9.823667  0.180293
C  0.021251  9.823667  0.697151
C  8.830644  10.553000  0.155513
C  15.145562  8.371221  0.125787
C  0.021251  8.371221  0.596373
C  7.582124  9.823667  0.147836
C  13.876357  7.631998  0.182562
C  -1.214289  7.631998  0.508035
C  7.582124  8.371221  0.027036
C  13.876357  6.197900  0.178735
C  -1.214289  6.197900  0.516111
C  6.330357  7.631998  0.158561
C  12.623562  5.453610  0.226835
C  -2.463372  5.453610  0.442537
C  6.330357  6.197900  0.152615
C  12.623562  4.000000  0.154261
C  -2.463372  4.000000  0.337605
C  7.582124  12.724286  0.111076
C  13.876357  10.553000  0.088771
C  -1.214289  10.553000  0.501312
C  6.330357  12.029000  0.114072
C  12.623562  9.823667  0.192592
C  -2.463372  9.823667  0.327888
C  6.330357  10.553000  0.241896
C  12.623562  8.371221  0.240513
C  -2.463372  8.371221  0.428073
C  5.067250  9.823667  0.248349
C  -3.721000  7.631998  0.407399
C  5.067250  8.371221  0.288320
C  -3.721000  6.197900  0.409583
C  5.067250  12.724286  0.033031
C  3.815571  12.029000  0.070664
C  3.815571  10.553000  0.133449
C  2.546438  12.724286  0.215809
C  1.302141  12.029000  0.495823
C  6.330357  3.272000  0.148297
C  15.145562  12.724286  0.163022
C  0.021251  12.724286  0.285880
C  13.876357  12.029000  0.033144
C  -1.214289  12.029000  0.264623
C  12.623562  12.724286  -0.025404
C  6.330357  1.797813  -0.010761
C  8.830644  1.797813  -0.028811
C  11.361143  1.797813  -0.046121
C  10.098375  1.101000  -0.050104
C  7.582124  1.101000  -0.018456
C  5.067250  1.101000  -0.090072
C  12.623562  1.101000  -0.113192
