142
frame	310
H  17.693000  13.826000  0.000000
H  19.858000  12.564000  0.000000
H  21.106000  10.363000  0.000000
H  22.366000  5.656000  0.000000
H  22.367000  8.165000  0.000000
H  19.852000  1.261000  0.000000
H  17.690000  -0.000000  0.000000
H  21.104000  3.459000  0.000000
H  2.530000  -0.005000  0.000000
H  15.160000  -0.002000  0.000000
H  0.000000  -0.000000  0.000000
H  -2.163000  1.262000  0.000000
H  -3.415000  3.463000  0.000000
H  -4.677000  8.168000  0.000000
H  -4.678000  5.662000  0.000000
H  -2.159000  12.565000  0.000000
H  10.109000  13.837000  0.000000
H  7.585000  13.838000  0.000000
H  5.062000  13.833000  0.000000
H  2.535000  13.828000  0.000000
H  15.163000  13.830000  0.000000
H  0.007000  13.825000  0.000000
H  -3.412000  10.366000  0.000000
H  12.635000  13.835000  0.000000
H  10.108000  -0.010000  0.000000
H  7.583000  -0.012000  0.000000
H  5.058000  -0.011000  0.000000
H  12.631000  -0.009000  0.000000
C  16.391568  10.553000  -0.226602
C  16.391568  12.029000  -0.030281
C  17.670751  12.724286  0.195144
C  17.670751  8.371221  -0.456331
C  17.670751  9.823667  -0.338937
C  18.905140  10.553000  -0.090148
C  18.905140  12.029000  0.156655
C  17.670751  4.000000  -0.348201
C  17.670751  5.453610  -0.464388
C  18.905140  6.197900  -0.300918
C  18.905140  7.631998  -0.306594
C  20.154752  8.371221  -0.138402
C  20.154752  9.823667  -0.002589
C  18.905140  3.272000  -0.058193
C  20.154752  4.000000  0.019944
C  20.154752  5.453610  -0.131081
C  21.411000  6.197900  -0.049256
C  21.411000  7.631998  -0.058429
C  17.670751  1.101000  0.180979
C  18.905140  1.797813  0.157925
C  5.067250  5.453610  -0.437496
C  5.067250  4.000000  -0.453225
C  3.815571  3.272000  -0.335507
C  3.815571  1.797813  -0.280857
C  11.361143  3.272000  -0.474766
C  2.546438  1.101000  -0.179492
C  3.815571  7.631998  -0.527927
C  3.815571  6.197900  -0.550174
C  11.361143  7.631998  -0.507906
C  2.546438  5.453610  -0.594878
C  11.361143  6.197900  -0.522027
C  2.546438  4.000000  -0.371255
C  10.098375  5.453610  -0.715615
C  16.391568  3.272000  -0.242431
C  1.302141  3.272000  -0.268631
C  10.098375  4.000000  -0.481722
C  16.391568  1.797813  -0.054589
C  1.302141  1.797813  -0.060596
C  8.830644  3.272000  -0.430388
C  15.145562  1.101000  -0.166656
C  0.021251  1.101000  0.176891
C  11.361143  12.029000  -0.209270
C  2.546438  9.823667  -0.326609
C  11.361143  10.553000  -0.391159
C  2.546438  8.371221  -0.576791
C  10.098375  9.823667  -0.411970
C  16.391568  7.631998  -0.628420
C  1.302141  7.631998  -0.682921
C  10.098375  8.371221  -0.668659
C  16.391568  6.197900  -0.643890
C  1.302141  6.197900  -0.687238
C  15.145562  5.453610  -0.554048
C  0.021251  5.453610  -0.521726
C  8.830644  7.631998  -1.004569
C  8.830644  6.197900  -1.018046
C  15.145562  4.000000  -0.341958
C  0.021251  4.000000  -0.403089
C  7.582124  5.453610  -0.699119
C  13.876357  3.272000  -0.322051
C  -1.214289  3.272000  -0.140725
C  7.582124  4.000000  -0.487630
C  13.876357  1.797813  -0.267398
C  -1.214289  1.797813  0.132298
C  10.098375  12.724286  -0.122899
C  1.302141  10.553000  -0.239550
C  8.830644  12.029000  -0.113517
C  15.145562  9.823667  -0.315468
C  0.021251  9.823667  -0.391180
C  8.830644  10.553000  -0.337637
C  15.145562  8.371221  -0.550017
C  0.021251  8.371221  -0.514381
C  7.582124  9.823667  -0.414312
C  13.876357  7.631998  -0.518725
C  -1.214289  7.631998  -0.392620
C  7.582124  8.371221  -0.659180
C  13.876357  6.197900  -0.517491
C  -1.214289  6.197900  -0.386602
C  6.330357  7.631998  -0.507555
C  12.623562  5.453610  -0.418120
C  -2.463372  5.453610  -0.221912
C  6.330357  6.197900  -0.521928
C  12.623562  4.000000  -0.437555
C  -2.463372  4.000000  -0.066220
C  7.582124  12.724286  -0.112123
C  13.876357  10.553000  -0.263160
C  -1.214289  10.553000  -0.121690
C  6.330357  12.029000  -0.194048
C  12.623562  9.823667  -0.376735
C  -2.463372  9.823667  -0.079513
C  6.330357  10.553000  -0.389256
C  12.623562  8.371221  -0.390350
C  -2.463372  8.371221  -0.237257
C  5.067250  9.823667  -0.370198
C  -3.721000  7.631998  -0.191450
C  5.067250  8.371221  -0.399742
C  -3.721000  6.197900  -0.186258
C  5.067250  12.724286  -0.181225
C  3.815571  12.029000  -0.181856
C  3.815571  10.553000  -0.264641
C  2.546438  12.724286  -0.096503
C  1.302141  12.029000  -0.008080
C  6.330357  3.272000  -0.481629
C  15.145562  12.724286  -0.129721
C  0.021251  12.724286  0.213326
C  13.876357  12.029000  -0.202463
C  -1.214289  12.029000  0.139333
C  12.623562  12.724286  -0.201657
C  6.330357  1.797813  -0.314173
C  8.830644  1.797813  -0.234056
C  11.361143  1.797813  -0.301331
C  10.098375  1.101000  -0.251301
C  7.582124  1.101000  -0.250442
C  5.067250  1.101000  -0.293602
C  12.623562  1.101000  -0.283113
