142
frame	574
H  17.693000  13.826000  0.000000
H  19.858000  12.564000  0.000000
H  21.106000  10.363000  0.000000
H  22.366000  5.656000  0.000000
H  22.367000  8.165000  0.000000
H  19.852000  1.261000  0.000000
H  17.690000  -0.000000  0.000000
H  21.104000  3.459000  0.000000
H  2.530000  -0.005000  0.000000
H  15.160000  -0.002000  0.000000
H  0.000000  -0.000000  0.000000
H  -2.163000  1.262000  0.000000
H  -3.415000  3.463000  0.000000
H  -4.677000  8.168000  0.000000
H  -4.678000  5.662000  0.000000
H  -2.159000  12.565000  0.000000
H  10.109000  13.837000  0.000000
H  7.585000  13.838000  0.000000
H  5.062000  13.833000  0.000000
H  2.535000  13.828000  0.000000
H  15.163000  13.830000  0.000000
H  0.007000  13.825000  0.000000
H  -3.412000  10.366000  0.000000
H  12.635000  13.835000  0.000000
H  10.108000  -0.010000  0.000000
H  7.583000  -0.012000  0.000000
H  5.058000  -0.011000  0.000000
H  12.631000  -0.009000  0.000000
C  16.391568  10.553000  0.006527
C  16.391568  12.029000  0.097561
C  17.670751  12.724286  0.091603
C  17.670751  8.371221  -0.042502
C  17.670751  9.823667  0.060935
C  18.905140  10.553000  0.184637
C  18.905140  12.029000  0.198299
C  17.670751  4.000000  0.059831
C  17.670751  5.453610  -0.045713
C  18.905140  6.197900  -0.027436
C  18.905140  7.631998  -0.034233
C  20.154752  8.371221  0.090101
C  20.154752  9.823667  0.213630
C  18.905140  3.272000  0.195653
C  20.154752  4.000000  0.220723
C  20.154752  5.453610  0.073260
C  21.411000  6.197900  0.125111
C  21.411000  7.631998  0.131749
C  17.670751  1.101000  0.100699
C  18.905140  1.797813  0.222190
C  5.067250  5.453610  0.136320
C  5.067250  4.000000  0.046373
C  3.815571  3.272000  -0.015612
C  3.815571  1.797813  -0.110518
C  11.361143  3.272000  -0.214624
C  2.546438  1.101000  -0.029268
C  3.815571  7.631998  0.251153
C  3.815571  6.197900  0.238536
C  11.361143  7.631998  -0.205868
C  2.546438  5.453610  0.087424
C  11.361143  6.197900  -0.231240
C  2.546438  4.000000  -0.050484
C  10.098375  5.453610  -0.346527
C  16.391568  3.272000  -0.012665
C  1.302141  3.272000  -0.040600
C  10.098375  4.000000  -0.427336
C  16.391568  1.797813  0.063485
C  1.302141  1.797813  0.065041
C  8.830644  3.272000  -0.369279
C  15.145562  1.101000  -0.019249
C  0.021251  1.101000  0.077725
C  11.361143  12.029000  -0.177604
C  2.546438  9.823667  -0.027682
C  11.361143  10.553000  -0.176144
C  2.546438  8.371221  0.110673
C  10.098375  9.823667  -0.377512
C  16.391568  7.631998  -0.003328
C  1.302141  7.631998  -0.014283
C  10.098375  8.371221  -0.302971
C  16.391568  6.197900  -0.004515
C  1.302141  6.197900  -0.007306
C  15.145562  5.453610  0.102837
C  0.021251  5.453610  -0.066639
C  8.830644  7.631998  -0.262635
C  8.830644  6.197900  -0.280895
C  15.145562  4.000000  -0.029024
C  0.021251  4.000000  0.030183
C  7.582124  5.453610  -0.350884
C  13.876357  3.272000  0.001551
C  -1.214289  3.272000  0.162238
C  7.582124  4.000000  -0.413874
C  13.876357  1.797813  -0.098583
C  -1.214289  1.797813  0.199956
C  10.098375  12.724286  -0.034998
C  1.302141  10.553000  -0.010369
C  8.830644  12.029000  -0.122894
C  15.145562  9.823667  -0.011374
C  0.021251  9.823667  0.044156
C  8.830644  10.553000  -0.312038
C  15.145562  8.371221  0.114164
C  0.021251  8.371221  -0.075755
C  7.582124  9.823667  -0.357396
C  13.876357  7.631998  0.253290
C  -1.214289  7.631998  -0.071317
C  7.582124  8.371221  -0.325230
C  13.876357  6.197900  0.246197
C  -1.214289  6.197900  -0.068027
C  6.330357  7.631998  -0.209258
C  12.623562  5.453610  0.138432
C  -2.463372  5.453610  0.030875
C  6.330357  6.197900  -0.221574
C  12.623562  4.000000  0.054942
C  -2.463372  4.000000  0.150528
C  7.582124  12.724286  -0.032988
C  13.876357  10.553000  0.023953
C  -1.214289  10.553000  0.176451
C  6.330357  12.029000  -0.164253
C  12.623562  9.823667  0.072955
C  -2.463372  9.823667  0.153357
C  6.330357  10.553000  -0.138335
C  12.623562  8.371221  0.150802
C  -2.463372  8.371221  0.016878
C  5.067250  9.823667  0.076059
C  -3.721000  7.631998  0.033235
C  5.067250  8.371221  0.163751
C  -3.721000  6.197900  0.036496
C  5.067250  12.724286  -0.121843
C  3.815571  12.029000  -0.033458
C  3.815571  10.553000  0.017865
C  2.546438  12.724286  0.048376
C  1.302141  12.029000  0.113944
C  6.330357  3.272000  -0.196818
C  15.145562  12.724286  0.024699
C  0.021251  12.724286  0.111059
C  13.876357  12.029000  -0.045640
C  -1.214289  12.029000  0.201631
C  12.623562  12.724286  -0.137801
C  6.330357  1.797813  -0.264919
C  8.830644  1.797813  -0.221206
C  11.361143  1.797813  -0.265831
C  10.098375  1.101000  -0.154119
C  7.582124  1.101000  -0.155159
C  5.067250  1.101000  -0.229626
C  12.623562  1.101000  -0.232213
