142
frame	707
H  17.693000  13.826000  0.000000
H  19.858000  12.564000  0.000000
H  21.106000  10.363000  0.000000
H  22.366000  5.656000  0.000000
H  22.367000  8.165000  0.000000
H  19.852000  1.261000  0.000000
H  17.690000  -0.000000  0.000000
H  21.104000  3.459000  0.000000
H  2.530000  -0.005000  0.000000
H  15.160000  -0.002000  0.000000
H  0.000000  -0.000000  0.000000
H  -2.163000  1.262000  0.000000
H  -3.415000  3.463000  0.000000
H  -4.677000  8.168000  0.000000
H  -4.678000  5.662000  0.000000
H  -2.159000  12.565000  0.000000
H  10.109000  13.837000  0.000000
H  7.585000  13.838000  0.000000
H  5.062000  13.833000  0.000000
H  2.535000  13.828000  0.000000
H  15.163000  13.830000  0.000000
H  0.007000  13.825000  0.000000
H  -3.412000  10.366000  0.000000
H  12.635000  13.835000  0.000000
H  10.108000  -0.010000  0.000000
H  7.583000  -0.012000  0.000000
H  5.058000  -0.011000  0.000000
H  12.631000  -0.009000  0.000000
C  16.391568  10.553000  0.485993
C  16.391568  12.029000  0.450595
C  17.670751  12.724286  0.259066
C  17.670751  8.371221  0.640596
C  17.670751  9.823667  0.746285
C  18.905140  10.553000  0.561778
C  18.905140  12.029000  0.264186
C  17.670751  4.000000  0.747576
C  17.670751  5.453610  0.653449
C  18.905140  6.197900  0.563427
C  18.905140  7.631998  0.561611
C  20.154752  8.371221  0.523076
C  20.154752  9.823667  0.448949
C  18.905140  3.272000  0.564674
C  20.154752  4.000000  0.456387
C  20.154752  5.453610  0.536857
C  21.411000  6.197900  0.528543
C  21.411000  7.631998  0.515437
C  17.670751  1.101000  0.268454
C  18.905140  1.797813  0.276664
C  5.067250  5.453610  0.237519
C  5.067250  4.000000  0.212523
C  3.815571  3.272000  0.079834
C  3.815571  1.797813  0.044399
C  11.361143  3.272000  0.116453
C  2.546438  1.101000  0.161855
C  3.815571  7.631998  0.247190
C  3.815571  6.197900  0.235720
C  11.361143  7.631998  0.164471
C  2.546438  5.453610  0.176861
C  11.361143  6.197900  0.151119
C  2.546438  4.000000  0.163740
C  10.098375  5.453610  0.014332
C  16.391568  3.272000  0.474005
C  1.302141  3.272000  0.478274
C  10.098375  4.000000  0.098266
C  16.391568  1.797813  0.443266
C  1.302141  1.797813  0.437568
C  8.830644  3.272000  0.007214
C  15.145562  1.101000  0.158560
C  0.021251  1.101000  0.257195
C  11.361143  12.029000  0.064126
C  2.546438  9.823667  0.191486
C  11.361143  10.553000  0.189196
C  2.546438  8.371221  0.195940
C  10.098375  9.823667  0.159646
C  16.391568  7.631998  0.356144
C  1.302141  7.631998  0.360783
C  10.098375  8.371221  0.050525
C  16.391568  6.197900  0.358247
C  1.302141  6.197900  0.352691
C  15.145562  5.453610  0.146243
C  0.021251  5.453610  0.631738
C  8.830644  7.631998  -0.039552
C  8.830644  6.197900  -0.061625
C  15.145562  4.000000  0.137528
C  0.021251  4.000000  0.744206
C  7.582124  5.453610  0.020626
C  13.876357  3.272000  0.066274
C  -1.214289  3.272000  0.539480
C  7.582124  4.000000  0.091576
C  13.876357  1.797813  0.024335
C  -1.214289  1.797813  0.257244
C  10.098375  12.724286  0.110038
C  1.302141  10.553000  0.526218
C  8.830644  12.029000  0.164874
C  15.145562  9.823667  0.152209
C  0.021251  9.823667  0.758720
C  8.830644  10.553000  0.100806
C  15.145562  8.371221  0.159115
C  0.021251  8.371221  0.631052
C  7.582124  9.823667  0.175835
C  13.876357  7.631998  0.194330
C  -1.214289  7.631998  0.488968
C  7.582124  8.371221  0.070758
C  13.876357  6.197900  0.183917
C  -1.214289  6.197900  0.490910
C  6.330357  7.631998  0.173344
C  12.623562  5.453610  0.201863
C  -2.463372  5.453610  0.456258
C  6.330357  6.197900  0.156169
C  12.623562  4.000000  0.200257
C  -2.463372  4.000000  0.387225
C  7.582124  12.724286  0.139547
C  13.876357  10.553000  0.101848
C  -1.214289  10.553000  0.537330
C  6.330357  12.029000  0.125020
C  12.623562  9.823667  0.234211
C  -2.463372  9.823667  0.381913
C  6.330357  10.553000  0.237310
C  12.623562  8.371221  0.234875
C  -2.463372  8.371221  0.436339
C  5.067250  9.823667  0.292659
C  -3.721000  7.631998  0.397595
C  5.067250  8.371221  0.282598
C  -3.721000  6.197900  0.393798
C  5.067250  12.724286  0.004419
C  3.815571  12.029000  0.126259
C  3.815571  10.553000  0.146488
C  2.546438  12.724286  0.247278
C  1.302141  12.029000  0.506013
C  6.330357  3.272000  0.137800
C  15.145562  12.724286  0.190015
C  0.021251  12.724286  0.276472
C  13.876357  12.029000  0.084291
C  -1.214289  12.029000  0.262067
C  12.623562  12.724286  -0.059600
C  6.330357  1.797813  -0.001528
C  8.830644  1.797813  0.045249
C  11.361143  1.797813  -0.028234
C  10.098375  1.101000  -0.021696
C  7.582124  1.101000  0.004467
C  5.067250  1.101000  -0.120870
C  12.623562  1.101000  -0.157669
