142
frame	694
H  17.693000  13.826000  0.000000
H  19.858000  12.564000  0.000000
H  21.106000  10.363000  0.000000
H  22.366000  5.656000  0.000000
H  22.367000  8.165000  0.000000
H  19.852000  1.261000  0.000000
H  17.690000  -0.000000  0.000000
H  21.104000  3.459000  0.000000
H  2.530000  -0.005000  0.000000
H  15.160000  -0.002000  0.000000
H  0.000000  -0.000000  0.000000
H  -2.163000  1.262000  0.000000
H  -3.415000  3.463000  0.000000
H  -4.677000  8.168000  0.000000
H  -4.678000  5.662000  0.000000
H  -2.159000  12.565000  0.000000
H  10.109000  13.837000  0.000000
H  7.585000  13.838000  0.000000
H  5.062000  13.833000  0.000000
H  2.535000  13.828000  0.000000
H  15.163000  13.830000  0.000000
H  0.007000  13.825000  0.000000
H  -3.412000  10.366000  0.000000
H  12.635000  13.835000  0.000000
H  10.108000  -0.010000  0.000000
H  7.583000  -0.012000  0.000000
H  5.058000  -0.011000  0.000000
H  12.631000  -0.009000  0.000000
C  16.391568  10.553000  0.493009
C  16.391568  12.029000  0.414770
C  17.670751  12.724286  0.267344
C  17.670751  8.371221  0.592164
C  17.670751  9.823667  0.637780
C  18.905140  10.553000  0.503464
C  18.905140  12.029000  0.253768
C  17.670751  4.000000  0.634220
C  17.670751  5.453610  0.585458
C  18.905140  6.197900  0.609760
C  18.905140  7.631998  0.593749
C  20.154752  8.371221  0.530851
C  20.154752  9.823667  0.367093
C  18.905140  3.272000  0.510895
C  20.154752  4.000000  0.378739
C  20.154752  5.453610  0.541376
C  21.411000  6.197900  0.527532
C  21.411000  7.631998  0.512160
C  17.670751  1.101000  0.278747
C  18.905140  1.797813  0.274213
C  5.067250  5.453610  0.241862
C  5.067250  4.000000  0.125155
C  3.815571  3.272000  0.061218
C  3.815571  1.797813  -0.043431
C  11.361143  3.272000  0.103324
C  2.546438  1.101000  0.106305
C  3.815571  7.631998  0.210839
C  3.815571  6.197900  0.208791
C  11.361143  7.631998  0.140617
C  2.546438  5.453610  0.167537
C  11.361143  6.197900  0.133667
C  2.546438  4.000000  0.233892
C  10.098375  5.453610  -0.053069
C  16.391568  3.272000  0.500716
C  1.302141  3.272000  0.499504
C  10.098375  4.000000  0.049897
C  16.391568  1.797813  0.399161
C  1.302141  1.797813  0.401565
C  8.830644  3.272000  0.092235
C  15.145562  1.101000  0.090508
C  0.021251  1.101000  0.259628
C  11.361143  12.029000  0.040646
C  2.546438  9.823667  0.264027
C  11.361143  10.553000  0.182469
C  2.546438  8.371221  0.182069
C  10.098375  9.823667  0.119127
C  16.391568  7.631998  0.373870
C  1.302141  7.631998  0.391583
C  10.098375  8.371221  -0.025098
C  16.391568  6.197900  0.389552
C  1.302141  6.197900  0.385462
C  15.145562  5.453610  0.132754
C  0.021251  5.453610  0.557245
C  8.830644  7.631998  -0.223721
C  8.830644  6.197900  -0.243393
C  15.145562  4.000000  0.205897
C  0.021251  4.000000  0.616751
C  7.582124  5.453610  -0.046958
C  13.876357  3.272000  0.051368
C  -1.214289  3.272000  0.483953
C  7.582124  4.000000  0.045595
C  13.876357  1.797813  -0.053459
C  -1.214289  1.797813  0.262193
C  10.098375  12.724286  0.056662
C  1.302141  10.553000  0.543543
C  8.830644  12.029000  0.065386
C  15.145562  9.823667  0.218080
C  0.021251  9.823667  0.625115
C  8.830644  10.553000  0.180536
C  15.145562  8.371221  0.135430
C  0.021251  8.371221  0.560513
C  7.582124  9.823667  0.131874
C  13.876357  7.631998  0.168054
C  -1.214289  7.631998  0.536416
C  7.582124  8.371221  0.001979
C  13.876357  6.197900  0.166273
C  -1.214289  6.197900  0.546406
C  6.330357  7.631998  0.152262
C  12.623562  5.453610  0.231421
C  -2.463372  5.453610  0.439353
C  6.330357  6.197900  0.143312
C  12.623562  4.000000  0.108955
C  -2.463372  4.000000  0.312361
C  7.582124  12.724286  0.088720
C  13.876357  10.553000  0.090543
C  -1.214289  10.553000  0.477410
C  6.330357  12.029000  0.112656
C  12.623562  9.823667  0.155807
C  -2.463372  9.823667  0.295383
C  6.330357  10.553000  0.226681
C  12.623562  8.371221  0.232870
C  -2.463372  8.371221  0.430887
C  5.067250  9.823667  0.205974
C  -3.721000  7.631998  0.388789
C  5.067250  8.371221  0.276606
C  -3.721000  6.197900  0.397000
C  5.067250  12.724286  0.061759
C  3.815571  12.029000  0.052290
C  3.815571  10.553000  0.136334
C  2.546438  12.724286  0.190180
C  1.302141  12.029000  0.455689
C  6.330357  3.272000  0.134349
C  15.145562  12.724286  0.144624
C  0.021251  12.724286  0.296395
C  13.876357  12.029000  0.011062
C  -1.214289  12.029000  0.270961
C  12.623562  12.724286  0.006760
C  6.330357  1.797813  -0.009790
C  8.830644  1.797813  -0.059745
C  11.361143  1.797813  -0.048605
C  10.098375  1.101000  -0.071909
C  7.582124  1.101000  -0.041526
C  5.067250  1.101000  -0.060131
C  12.623562  1.101000  -0.074820
