142
frame	885
H  17.693000  13.826000  0.000000
H  19.858000  12.564000  0.000000
H  21.106000  10.363000  0.000000
H  22.366000  5.656000  0.000000
H  22.367000  8.165000  0.000000
H  19.852000  1.261000  0.000000
H  17.690000  -0.000000  0.000000
H  21.104000  3.459000  0.000000
H  2.530000  -0.005000  0.000000
H  15.160000  -0.002000  0.000000
H  0.000000  -0.000000  0.000000
H  -2.163000  1.262000  0.000000
H  -3.415000  3.463000  0.000000
H  -4.677000  8.168000  0.000000
H  -4.678000  5.662000  0.000000
H  -2.159000  12.565000  0.000000
H  10.109000  13.837000  0.000000
H  7.585000  13.838000  0.000000
H  5.062000  13.833000  0.000000
H  2.535000  13.828000  0.000000
H  15.163000  13.830000  0.000000
H  0.007000  13.825000  0.000000
H  -3.412000  10.366000  0.000000
H  12.635000  13.835000  0.000000
H  10.108000  -0.010000  0.000000
H  7.583000  -0.012000  0.000000
H  5.058000  -0.011000  0.000000
H  12.631000  -0.009000  0.000000
C  16.391568  10.553000  0.321993
C  16.391568  12.029000  0.225696
C  17.670751  12.724286  0.141365
C  17.670751  8.371221  0.184615
C  17.670751  9.823667  0.073584
C  18.905140  10.553000  -0.072047
C  18.905140  12.029000  0.031565
C  17.670751  4.000000  0.063198
C  17.670751  5.453610  0.172545
C  18.905140  6.197900  0.119585
C  18.905140  7.631998  0.131625
C  20.154752  8.371221  0.048501
C  20.154752  9.823667  -0.016935
C  18.905140  3.272000  -0.072109
C  20.154752  4.000000  -0.006193
C  20.154752  5.453610  0.058400
C  21.411000  6.197900  0.026046
C  21.411000  7.631998  0.027763
C  17.670751  1.101000  0.128211
C  18.905140  1.797813  0.046733
C  5.067250  5.453610  0.536540
C  5.067250  4.000000  0.476026
C  3.815571  3.272000  0.511757
C  3.815571  1.797813  0.345851
C  11.361143  3.272000  0.506557
C  2.546438  1.101000  0.191339
C  3.815571  7.631998  0.327089
C  3.815571  6.197900  0.311301
C  11.361143  7.631998  0.879615
C  2.546438  5.453610  0.372374
C  11.361143  6.197900  0.856621
C  2.546438  4.000000  0.480081
C  10.098375  5.453610  0.901726
C  16.391568  3.272000  0.302221
C  1.302141  3.272000  0.327459
C  10.098375  4.000000  0.766302
C  16.391568  1.797813  0.204455
C  1.302141  1.797813  0.232219
C  8.830644  3.272000  0.606519
C  15.145562  1.101000  0.156954
C  0.021251  1.101000  0.134669
C  11.361143  12.029000  0.317006
C  2.546438  9.823667  0.522555
C  11.361143  10.553000  0.576271
C  2.546438  8.371221  0.396972
C  10.098375  9.823667  0.825324
C  16.391568  7.631998  0.256026
C  1.302141  7.631998  0.248317
C  10.098375  8.371221  0.937243
C  16.391568  6.197900  0.229776
C  1.302141  6.197900  0.239202
C  15.145562  5.453610  0.349409
C  0.021251  5.453610  0.161652
C  8.830644  7.631998  0.887400
C  8.830644  6.197900  0.858583
C  15.145562  4.000000  0.448887
C  0.021251  4.000000  0.057618
C  7.582124  5.453610  0.891642
C  13.876357  3.272000  0.492321
C  -1.214289  3.272000  -0.090383
C  7.582124  4.000000  0.762920
C  13.876357  1.797813  0.309805
C  -1.214289  1.797813  0.014301
C  10.098375  12.724286  0.170737
C  1.302141  10.553000  0.351376
C  8.830644  12.029000  0.302593
C  15.145562  9.823667  0.491616
C  0.021251  9.823667  0.072130
C  8.830644  10.553000  0.681009
C  15.145562  8.371221  0.383108
C  0.021251  8.371221  0.182643
C  7.582124  9.823667  0.832792
C  13.876357  7.631998  0.322237
C  -1.214289  7.631998  0.093645
C  7.582124  8.371221  0.937146
C  13.876357  6.197900  0.306405
C  -1.214289  6.197900  0.093413
C  6.330357  7.631998  0.890842
C  12.623562  5.453610  0.513200
C  -2.463372  5.453610  -0.005714
C  6.330357  6.197900  0.872189
C  12.623562  4.000000  0.459768
C  -2.463372  4.000000  -0.073241
C  7.582124  12.724286  0.191958
C  13.876357  10.553000  0.545705
C  -1.214289  10.553000  -0.105967
C  6.330357  12.029000  0.343823
C  12.623562  9.823667  0.516333
C  -2.463372  9.823667  -0.071962
C  6.330357  10.553000  0.580820
C  12.623562  8.371221  0.538955
C  -2.463372  8.371221  0.000470
C  5.067250  9.823667  0.511179
C  -3.721000  7.631998  -0.063707
C  5.067250  8.371221  0.541878
C  -3.721000  6.197900  -0.061508
C  5.067250  12.724286  0.269281
C  3.815571  12.029000  0.428393
C  3.815571  10.553000  0.569036
C  2.546438  12.724286  0.253175
C  1.302141  12.029000  0.260451
C  6.330357  3.272000  0.507489
C  15.145562  12.724286  0.210682
C  0.021251  12.724286  0.159658
C  13.876357  12.029000  0.365467
C  -1.214289  12.029000  0.012922
C  12.623562  12.724286  0.240056
C  6.330357  1.797813  0.218051
C  8.830644  1.797813  0.185763
C  11.361143  1.797813  0.222173
C  10.098375  1.101000  0.027812
C  7.582124  1.101000  0.044235
C  5.067250  1.101000  0.152726
C  12.623562  1.101000  0.148588
