142
frame	811
H  17.693000  13.826000  0.000000
H  19.858000  12.564000  0.000000
H  21.106000  10.363000  0.000000
H  22.366000  5.656000  0.000000
H  22.367000  8.165000  0.000000
H  19.852000  1.261000  0.000000
H  17.690000  -0.000000  0.000000
H  21.104000  3.459000  0.000000
H  2.530000  -0.005000  0.000000
H  15.160000  -0.002000  0.000000
H  0.000000  -0.000000  0.000000
H  -2.163000  1.262000  0.000000
H  -3.415000  3.463000  0.000000
H  -4.677000  8.168000  0.000000
H  -4.678000  5.662000  0.000000
H  -2.159000  12.565000  0.000000
H  10.109000  13.837000  0.000000
H  7.585000  13.838000  0.000000
H  5.062000  13.833000  0.000000
H  2.535000  13.828000  0.000000
H  15.163000  13.830000  0.000000
H  0.007000  13.825000  0.000000
H  -3.412000  10.366000  0.000000
H  12.635000  13.835000  0.000000
H  10.108000  -0.010000  0.000000
H  7.583000  -0.012000  0.000000
H  5.058000  -0.011000  0.000000
H  12.631000  -0.009000  0.000000
C  16.391568  10.553000  0.185413
C  16.391568  12.029000  0.057026
C  17.670751  12.724286  0.101015
C  17.670751  8.371221  0.293202
C  17.670751  9.823667  0.110316
C  18.905140  10.553000  0.125913
C  18.905140  12.029000  0.124118
C  17.670751  4.000000  0.119809
C  17.670751  5.453610  0.291013
C  18.905140  6.197900  0.384592
C  18.905140  7.631998  0.384729
C  20.154752  8.371221  0.243340
C  20.154752  9.823667  0.209199
C  18.905140  3.272000  0.130603
C  20.154752  4.000000  0.222489
C  20.154752  5.453610  0.245213
C  21.411000  6.197900  0.155952
C  21.411000  7.631998  0.143700
C  17.670751  1.101000  0.083104
C  18.905140  1.797813  0.120741
C  5.067250  5.453610  0.744448
C  5.067250  4.000000  0.463782
C  3.815571  3.272000  0.385325
C  3.815571  1.797813  0.058358
C  11.361143  3.272000  0.282937
C  2.546438  1.101000  -0.059260
C  3.815571  7.631998  0.782830
C  3.815571  6.197900  0.775037
C  11.361143  7.631998  0.680851
C  2.546438  5.453610  0.636908
C  11.361143  6.197900  0.675969
C  2.546438  4.000000  0.427141
C  10.098375  5.453610  0.411285
C  16.391568  3.272000  0.165120
C  1.302141  3.272000  0.155283
C  10.098375  4.000000  0.309675
C  16.391568  1.797813  0.028405
C  1.302141  1.797813  0.006828
C  8.830644  3.272000  0.310017
C  15.145562  1.101000  -0.070456
C  0.021251  1.101000  0.073997
C  11.361143  12.029000  0.230179
C  2.546438  9.823667  0.470915
C  11.361143  10.553000  0.356635
C  2.546438  8.371221  0.659023
C  10.098375  9.823667  0.372625
C  16.391568  7.631998  0.444324
C  1.302141  7.631998  0.473121
C  10.098375  8.371221  0.440657
C  16.391568  6.197900  0.438476
C  1.302141  6.197900  0.465396
C  15.145562  5.453610  0.605890
C  0.021251  5.453610  0.292689
C  8.830644  7.631998  0.242810
C  8.830644  6.197900  0.209753
C  15.145562  4.000000  0.423648
C  0.021251  4.000000  0.111987
C  7.582124  5.453610  0.402978
C  13.876357  3.272000  0.373520
C  -1.214289  3.272000  0.117018
C  7.582124  4.000000  0.320645
C  13.876357  1.797813  0.055744
C  -1.214289  1.797813  0.118937
C  10.098375  12.724286  0.199485
C  1.302141  10.553000  0.197923
C  8.830644  12.029000  0.295345
C  15.145562  9.823667  0.440306
C  0.021251  9.823667  0.118065
C  8.830644  10.553000  0.392346
C  15.145562  8.371221  0.615053
C  0.021251  8.371221  0.302096
C  7.582124  9.823667  0.390425
C  13.876357  7.631998  0.746479
C  -1.214289  7.631998  0.350656
C  7.582124  8.371221  0.461774
C  13.876357  6.197900  0.731103
C  -1.214289  6.197900  0.363309
C  6.330357  7.631998  0.719611
C  12.623562  5.453610  0.711912
C  -2.463372  5.453610  0.187769
C  6.330357  6.197900  0.692816
C  12.623562  4.000000  0.427513
C  -2.463372  4.000000  0.178783
C  7.582124  12.724286  0.229869
C  13.876357  10.553000  0.426132
C  -1.214289  10.553000  0.128149
C  6.330357  12.029000  0.265733
C  12.623562  9.823667  0.487701
C  -2.463372  9.823667  0.161503
C  6.330357  10.553000  0.391362
C  12.623562  8.371221  0.732413
C  -2.463372  8.371221  0.186709
C  5.067250  9.823667  0.528846
C  -3.721000  7.631998  0.039299
C  5.067250  8.371221  0.765516
C  -3.721000  6.197900  0.038638
C  5.067250  12.724286  0.170310
C  3.815571  12.029000  0.151506
C  3.815571  10.553000  0.450140
C  2.546438  12.724286  0.025723
C  1.302141  12.029000  0.077538
C  6.330357  3.272000  0.299763
C  15.145562  12.724286  -0.019918
C  0.021251  12.724286  0.111074
C  13.876357  12.029000  0.139464
C  -1.214289  12.029000  0.137067
C  12.623562  12.724286  0.120149
C  6.330357  1.797813  0.151866
C  8.830644  1.797813  0.168727
C  11.361143  1.797813  0.101078
C  10.098375  1.101000  0.061003
C  7.582124  1.101000  0.082275
C  5.067250  1.101000  0.038616
C  12.623562  1.101000  0.010585
