142
frame	114
H  17.693000  13.826000  0.000000
H  19.858000  12.564000  0.000000
H  21.106000  10.363000  0.000000
H  22.366000  5.656000  0.000000
H  22.367000  8.165000  0.000000
H  19.852000  1.261000  0.000000
H  17.690000  -0.000000  0.000000
H  21.104000  3.459000  0.000000
H  2.530000  -0.005000  0.000000
H  15.160000  -0.002000  0.000000
H  0.000000  -0.000000  0.000000
H  -2.163000  1.262000  0.000000
H  -3.415000  3.463000  0.000000
H  -4.677000  8.168000  0.000000
H  -4.678000  5.662000  0.000000
H  -2.159000  12.565000  0.000000
H  10.109000  13.837000  0.000000
H  7.585000  13.838000  0.000000
H  5.062000  13.833000  0.000000
H  2.535000  13.828000  0.000000
H  15.163000  13.830000  0.000000
H  0.007000  13.825000  0.000000
H  -3.412000  10.366000  0.000000
H  12.635000  13.835000  0.000000
H  10.108000  -0.010000  0.000000
H  7.583000  -0.012000  0.000000
H  5.058000  -0.011000  0.000000
H  12.631000  -0.009000  0.000000
C  16.391568  10.553000  0.200260
C  16.391568  12.029000  0.079300
C  17.670751  12.724286  -0.089734
C  17.670751  8.371221  0.171284
C  17.670751  9.823667  0.102803
C  18.905140  10.553000  -0.019252
C  18.905140  12.029000  -0.057395
C  17.670751  4.000000  0.102234
C  17.670751  5.453610  0.166812
C  18.905140  6.197900  0.085448
C  18.905140  7.631998  0.086675
C  20.154752  8.371221  0.090880
C  20.154752  9.823667  0.057956
C  18.905140  3.272000  -0.007026
C  20.154752  4.000000  0.071333
C  20.154752  5.453610  0.098830
C  21.411000  6.197900  0.194450
C  21.411000  7.631998  0.187377
C  17.670751  1.101000  -0.085731
C  18.905140  1.797813  -0.052342
C  5.067250  5.453610  -0.389661
C  5.067250  4.000000  -0.324092
C  3.815571  3.272000  -0.031855
C  3.815571  1.797813  0.093392
C  11.361143  3.272000  -0.363124
C  2.546438  1.101000  0.134164
C  3.815571  7.631998  -0.284268
C  3.815571  6.197900  -0.290980
C  11.361143  7.631998  -0.438521
C  2.546438  5.453610  0.048469
C  11.361143  6.197900  -0.448146
C  2.546438  4.000000  0.119923
C  10.098375  5.453610  -0.610272
C  16.391568  3.272000  0.178124
C  1.302141  3.272000  0.197970
C  10.098375  4.000000  -0.470848
C  16.391568  1.797813  0.074377
C  1.302141  1.797813  0.084506
C  8.830644  3.272000  -0.352255
C  15.145562  1.101000  0.119573
C  0.021251  1.101000  -0.093507
C  11.361143  12.029000  -0.203963
C  2.546438  9.823667  0.152878
C  11.361143  10.553000  -0.318121
C  2.546438  8.371221  0.065695
C  10.098375  9.823667  -0.417306
C  16.391568  7.631998  0.224300
C  1.302141  7.631998  0.247118
C  10.098375  8.371221  -0.569917
C  16.391568  6.197900  0.227239
C  1.302141  6.197900  0.239179
C  15.145562  5.453610  0.029693
C  0.021251  5.453610  0.172589
C  8.830644  7.631998  -0.718051
C  8.830644  6.197900  -0.738563
C  15.145562  4.000000  0.105083
C  0.021251  4.000000  0.104439
C  7.582124  5.453610  -0.588974
C  13.876357  3.272000  -0.046282
C  -1.214289  3.272000  -0.039650
C  7.582124  4.000000  -0.458657
C  13.876357  1.797813  0.077380
C  -1.214289  1.797813  -0.076735
C  10.098375  12.724286  -0.214242
C  1.302141  10.553000  0.226903
C  8.830644  12.029000  -0.343442
C  15.145562  9.823667  0.134859
C  0.021251  9.823667  0.119808
C  8.830644  10.553000  -0.285340
C  15.145562  8.371221  0.040915
C  0.021251  8.371221  0.179917
C  7.582124  9.823667  -0.409087
C  13.876357  7.631998  -0.292579
C  -1.214289  7.631998  0.055758
C  7.582124  8.371221  -0.571649
C  13.876357  6.197900  -0.317590
C  -1.214289  6.197900  0.056559
C  6.330357  7.631998  -0.412292
C  12.623562  5.453610  -0.401153
C  -2.463372  5.453610  0.029497
C  6.330357  6.197900  -0.435754
C  12.623562  4.000000  -0.341147
C  -2.463372  4.000000  0.007092
C  7.582124  12.724286  -0.200509
C  13.876357  10.553000  -0.011123
C  -1.214289  10.553000  -0.034004
C  6.330357  12.029000  -0.185267
C  12.623562  9.823667  -0.305272
C  -2.463372  9.823667  0.002637
C  6.330357  10.553000  -0.294498
C  12.623562  8.371221  -0.390983
C  -2.463372  8.371221  0.026530
C  5.067250  9.823667  -0.263472
C  -3.721000  7.631998  0.078764
C  5.067250  8.371221  -0.363260
C  -3.721000  6.197900  0.081034
C  5.067250  12.724286  0.121614
C  3.815571  12.029000  0.161347
C  3.815571  10.553000  0.030971
C  2.546438  12.724286  0.202206
C  1.302141  12.029000  0.133433
C  6.330357  3.272000  -0.362410
C  15.145562  12.724286  0.158805
C  0.021251  12.724286  -0.060532
C  13.876357  12.029000  0.141433
C  -1.214289  12.029000  -0.069651
C  12.623562  12.724286  0.085757
C  6.330357  1.797813  -0.303903
C  8.830644  1.797813  -0.471492
C  11.361143  1.797813  -0.314569
C  10.098375  1.101000  -0.360362
C  7.582124  1.101000  -0.347526
C  5.067250  1.101000  0.009140
C  12.623562  1.101000  -0.016125
