142
frame	293
H  17.693000  13.826000  0.000000
H  19.858000  12.564000  0.000000
H  21.106000  10.363000  0.000000
H  22.366000  5.656000  0.000000
H  22.367000  8.165000  0.000000
H  19.852000  1.261000  0.000000
H  17.690000  -0.000000  0.000000
H  21.104000  3.459000  0.000000
H  2.530000  -0.005000  0.000000
H  15.160000  -0.002000  0.000000
H  0.000000  -0.000000  0.000000
H  -2.163000  1.262000  0.000000
H  -3.415000  3.463000  0.000000
H  -4.677000  8.168000  0.000000
H  -4.678000  5.662000  0.000000
H  -2.159000  12.565000  0.000000
H  10.109000  13.837000  0.000000
H  7.585000  13.838000  0.000000
H  5.062000  13.833000  0.000000
H  2.535000  13.828000  0.000000
H  15.163000  13.830000  0.000000
H  0.007000  13.825000  0.000000
H  -3.412000  10.366000  0.000000
H  12.635000  13.835000  0.000000
H  10.108000  -0.010000  0.000000
H  7.583000  -0.012000  0.000000
H  5.058000  -0.011000  0.000000
H  12.631000  -0.009000  0.000000
C  16.391568  10.553000  -0.209685
C  16.391568  12.029000  -0.112233
C  17.670751  12.724286  -0.099835
C  17.670751  8.371221  -0.376281
C  17.670751  9.823667  -0.116044
C  18.905140  10.553000  0.024299
C  18.905140  12.029000  -0.023411
C  17.670751  4.000000  -0.117958
C  17.670751  5.453610  -0.380915
C  18.905140  6.197900  -0.261779
C  18.905140  7.631998  -0.269934
C  20.154752  8.371221  -0.039131
C  20.154752  9.823667  0.063534
C  18.905140  3.272000  0.029847
C  20.154752  4.000000  0.081490
C  20.154752  5.453610  -0.014265
C  21.411000  6.197900  0.105315
C  21.411000  7.631998  0.110094
C  17.670751  1.101000  -0.110682
C  18.905140  1.797813  -0.016351
C  5.067250  5.453610  -0.550447
C  5.067250  4.000000  -0.472878
C  3.815571  3.272000  -0.451305
C  3.815571  1.797813  -0.243087
C  11.361143  3.272000  -0.382313
C  2.546438  1.101000  -0.140047
C  3.815571  7.631998  -0.404408
C  3.815571  6.197900  -0.426515
C  11.361143  7.631998  -0.710515
C  2.546438  5.453610  -0.509238
C  11.361143  6.197900  -0.727788
C  2.546438  4.000000  -0.444271
C  10.098375  5.453610  -0.799977
C  16.391568  3.272000  -0.223547
C  1.302141  3.272000  -0.248716
C  10.098375  4.000000  -0.541752
C  16.391568  1.797813  -0.137049
C  1.302141  1.797813  -0.144056
C  8.830644  3.272000  -0.422193
C  15.145562  1.101000  -0.134617
C  0.021251  1.101000  -0.102086
C  11.361143  12.029000  -0.129166
C  2.546438  9.823667  -0.402829
C  11.361143  10.553000  -0.295221
C  2.546438  8.371221  -0.474059
C  10.098375  9.823667  -0.465640
C  16.391568  7.631998  -0.567149
C  1.302141  7.631998  -0.610965
C  10.098375  8.371221  -0.772995
C  16.391568  6.197900  -0.564897
C  1.302141  6.197900  -0.618940
C  15.145562  5.453610  -0.465694
C  0.021251  5.453610  -0.426546
C  8.830644  7.631998  -0.865819
C  8.830644  6.197900  -0.878968
C  15.145562  4.000000  -0.418877
C  0.021251  4.000000  -0.166574
C  7.582124  5.453610  -0.804625
C  13.876357  3.272000  -0.440885
C  -1.214289  3.272000  -0.030704
C  7.582124  4.000000  -0.537242
C  13.876357  1.797813  -0.222373
C  -1.214289  1.797813  -0.026235
C  10.098375  12.724286  -0.032440
C  1.302141  10.553000  -0.213224
C  8.830644  12.029000  -0.168344
C  15.145562  9.823667  -0.404107
C  0.021251  9.823667  -0.150508
C  8.830644  10.553000  -0.328223
C  15.145562  8.371221  -0.453274
C  0.021251  8.371221  -0.438732
C  7.582124  9.823667  -0.454629
C  13.876357  7.631998  -0.397047
C  -1.214289  7.631998  -0.353702
C  7.582124  8.371221  -0.775683
C  13.876357  6.197900  -0.403127
C  -1.214289  6.197900  -0.348771
C  6.330357  7.631998  -0.716829
C  12.623562  5.453610  -0.536235
C  -2.463372  5.453610  -0.119763
C  6.330357  6.197900  -0.727109
C  12.623562  4.000000  -0.463772
C  -2.463372  4.000000  -0.008750
C  7.582124  12.724286  -0.010097
C  13.876357  10.553000  -0.383231
C  -1.214289  10.553000  -0.020515
C  6.330357  12.029000  -0.113490
C  12.623562  9.823667  -0.401688
C  -2.463372  9.823667  -0.001030
C  6.330357  10.553000  -0.288095
C  12.623562  8.371221  -0.513783
C  -2.463372  8.371221  -0.124090
C  5.067250  9.823667  -0.410718
C  -3.721000  7.631998  -0.031134
C  5.067250  8.371221  -0.510334
C  -3.721000  6.197900  -0.013848
C  5.067250  12.724286  0.017792
C  3.815571  12.029000  -0.146901
C  3.815571  10.553000  -0.378695
C  2.546438  12.724286  -0.055934
C  1.302141  12.029000  -0.092707
C  6.330357  3.272000  -0.391448
C  15.145562  12.724286  -0.077365
C  0.021251  12.724286  -0.079419
C  13.876357  12.029000  -0.166335
C  -1.214289  12.029000  -0.020798
C  12.623562  12.724286  -0.015348
C  6.330357  1.797813  -0.229160
C  8.830644  1.797813  -0.292067
C  11.361143  1.797813  -0.225830
C  10.098375  1.101000  -0.156301
C  7.582124  1.101000  -0.153088
C  5.067250  1.101000  -0.111060
C  12.623562  1.101000  -0.098325
