142
frame	425
H  17.693000  13.826000  0.000000
H  19.858000  12.564000  0.000000
H  21.106000  10.363000  0.000000
H  22.366000  5.656000  0.000000
H  22.367000  8.165000  0.000000
H  19.852000  1.261000  0.000000
H  17.690000  -0.000000  0.000000
H  21.104000  3.459000  0.000000
H  2.530000  -0.005000  0.000000
H  15.160000  -0.002000  0.000000
H  0.000000  -0.000000  0.000000
H  -2.163000  1.262000  0.000000
H  -3.415000  3.463000  0.000000
H  -4.677000  8.168000  0.000000
H  -4.678000  5.662000  0.000000
H  -2.159000  12.565000  0.000000
H  10.109000  13.837000  0.000000
H  7.585000  13.838000  0.000000
H  5.062000  13.833000  0.000000
H  2.535000  13.828000  0.000000
H  15.163000  13.830000  0.000000
H  0.007000  13.825000  0.000000
H  -3.412000  10.366000  0.000000
H  12.635000  13.835000  0.000000
H  10.108000  -0.010000  0.000000
H  7.583000  -0.012000  0.000000
H  5.058000  -0.011000  0.000000
H  12.631000  -0.009000  0.000000
C  16.391568  10.553000  -0.541121
C  16.391568  12.029000  -0.293586
C  17.670751  12.724286  -0.130243
C  17.670751  8.371221  -0.398564
C  17.670751  9.823667  -0.404031
C  18.905140  10.553000  -0.253723
C  18.905140  12.029000  -0.183622
C  17.670751  4.000000  -0.402978
C  17.670751  5.453610  -0.383521
C  18.905140  6.197900  -0.250980
C  18.905140  7.631998  -0.248595
C  20.154752  8.371221  -0.024078
C  20.154752  9.823667  -0.068841
C  18.905140  3.272000  -0.256592
C  20.154752  4.000000  -0.058769
C  20.154752  5.453610  -0.001689
C  21.411000  6.197900  0.248187
C  21.411000  7.631998  0.241747
C  17.670751  1.101000  -0.131258
C  18.905140  1.797813  -0.172468
C  5.067250  5.453610  -0.314301
C  5.067250  4.000000  -0.245794
C  3.815571  3.272000  -0.549063
C  3.815571  1.797813  -0.492765
C  11.361143  3.272000  -0.171958
C  2.546438  1.101000  -0.348937
C  3.815571  7.631998  -0.422120
C  3.815571  6.197900  -0.434306
C  11.361143  7.631998  -0.329560
C  2.546438  5.453610  -0.731328
C  11.361143  6.197900  -0.349591
C  2.546438  4.000000  -0.736928
C  10.098375  5.453610  -0.414399
C  16.391568  3.272000  -0.561291
C  1.302141  3.272000  -0.600617
C  10.098375  4.000000  -0.183498
C  16.391568  1.797813  -0.331331
C  1.302141  1.797813  -0.344585
C  8.830644  3.272000  -0.175574
C  15.145562  1.101000  -0.334606
C  0.021251  1.101000  -0.155872
C  11.361143  12.029000  -0.070606
C  2.546438  9.823667  -0.708267
C  11.361143  10.553000  -0.090622
C  2.546438  8.371221  -0.717521
C  10.098375  9.823667  -0.122502
C  16.391568  7.631998  -0.591764
C  1.302141  7.631998  -0.643444
C  10.098375  8.371221  -0.366831
C  16.391568  6.197900  -0.589087
C  1.302141  6.197900  -0.655349
C  15.145562  5.453610  -0.682053
C  0.021251  5.453610  -0.451362
C  8.830644  7.631998  -0.360869
C  8.830644  6.197900  -0.375468
C  15.145562  4.000000  -0.689253
C  0.021251  4.000000  -0.447398
C  7.582124  5.453610  -0.405918
C  13.876357  3.272000  -0.531631
C  -1.214289  3.272000  -0.290595
C  7.582124  4.000000  -0.175767
C  13.876357  1.797813  -0.492803
C  -1.214289  1.797813  -0.220667
C  10.098375  12.724286  0.126273
C  1.302141  10.553000  -0.569478
C  8.830644  12.029000  0.076760
C  15.145562  9.823667  -0.670510
C  0.021251  9.823667  -0.432787
C  8.830644  10.553000  -0.091589
C  15.145562  8.371221  -0.658045
C  0.021251  8.371221  -0.460814
C  7.582124  9.823667  -0.113084
C  13.876357  7.631998  -0.372972
C  -1.214289  7.631998  -0.343227
C  7.582124  8.371221  -0.356356
C  13.876357  6.197900  -0.387059
C  -1.214289  6.197900  -0.324409
C  6.330357  7.631998  -0.332961
C  12.623562  5.453610  -0.290673
C  -2.463372  5.453610  -0.113924
C  6.330357  6.197900  -0.348958
C  12.623562  4.000000  -0.227605
C  -2.463372  4.000000  -0.138347
C  7.582124  12.724286  0.125553
C  13.876357  10.553000  -0.492261
C  -1.214289  10.553000  -0.288706
C  6.330357  12.029000  -0.059044
C  12.623562  9.823667  -0.191148
C  -2.463372  9.823667  -0.141442
C  6.330357  10.553000  -0.099200
C  12.623562  8.371221  -0.256144
C  -2.463372  8.371221  -0.119481
C  5.067250  9.823667  -0.201191
C  -3.721000  7.631998  0.123141
C  5.067250  8.371221  -0.285634
C  -3.721000  6.197900  0.126386
C  5.067250  12.724286  -0.238880
C  3.815571  12.029000  -0.419340
C  3.815571  10.553000  -0.501592
C  2.546438  12.724286  -0.268159
C  1.302141  12.029000  -0.295587
C  6.330357  3.272000  -0.183346
C  15.145562  12.724286  -0.284206
C  0.021251  12.724286  -0.130833
C  13.876357  12.029000  -0.437655
C  -1.214289  12.029000  -0.215839
C  12.623562  12.724286  -0.272399
C  6.330357  1.797813  -0.173169
C  8.830644  1.797813  -0.037362
C  11.361143  1.797813  -0.171874
C  10.098375  1.101000  -0.019169
C  7.582124  1.101000  -0.005783
C  5.067250  1.101000  -0.365146
C  12.623562  1.101000  -0.375151
