142
frame	257
H  17.693000  13.826000  0.000000
H  19.858000  12.564000  0.000000
H  21.106000  10.363000  0.000000
H  22.366000  5.656000  0.000000
H  22.367000  8.165000  0.000000
H  19.852000  1.261000  0.000000
H  17.690000  -0.000000  0.000000
H  21.104000  3.459000  0.000000
H  2.530000  -0.005000  0.000000
H  15.160000  -0.002000  0.000000
H  0.000000  -0.000000  0.000000
H  -2.163000  1.262000  0.000000
H  -3.415000  3.463000  0.000000
H  -4.677000  8.168000  0.000000
H  -4.678000  5.662000  0.000000
H  -2.159000  12.565000  0.000000
H  10.109000  13.837000  0.000000
H  7.585000  13.838000  0.000000
H  5.062000  13.833000  0.000000
H  2.535000  13.828000  0.000000
H  15.163000  13.830000  0.000000
H  0.007000  13.825000  0.000000
H  -3.412000  10.366000  0.000000
H  12.635000  13.835000  0.000000
H  10.108000  -0.010000  0.000000
H  7.583000  -0.012000  0.000000
H  5.058000  -0.011000  0.000000
H  12.631000  -0.009000  0.000000
C  16.391568  10.553000  -0.307058
C  16.391568  12.029000  -0.302550
C  17.670751  12.724286  -0.123136
C  17.670751  8.371221  -0.022006
C  17.670751  9.823667  -0.232099
C  18.905140  10.553000  -0.161948
C  18.905140  12.029000  -0.080946
C  17.670751  4.000000  -0.236431
C  17.670751  5.453610  -0.017635
C  18.905140  6.197900  0.087237
C  18.905140  7.631998  0.080586
C  20.154752  8.371221  0.175160
C  20.154752  9.823667  0.121218
C  18.905140  3.272000  -0.138787
C  20.154752  4.000000  0.115140
C  20.154752  5.453610  0.180471
C  21.411000  6.197900  0.279074
C  21.411000  7.631998  0.285981
C  17.670751  1.101000  -0.125128
C  18.905140  1.797813  -0.078030
C  5.067250  5.453610  -0.783638
C  5.067250  4.000000  -0.515351
C  3.815571  3.272000  -0.300570
C  3.815571  1.797813  -0.141674
C  11.361143  3.272000  -0.477138
C  2.546438  1.101000  -0.223929
C  3.815571  7.631998  -0.673771
C  3.815571  6.197900  -0.678842
C  11.361143  7.631998  -0.796475
C  2.546438  5.453610  -0.354454
C  11.361143  6.197900  -0.814428
C  2.546438  4.000000  -0.307147
C  10.098375  5.453610  -0.759954
C  16.391568  3.272000  -0.331769
C  1.302141  3.272000  -0.352883
C  10.098375  4.000000  -0.585904
C  16.391568  1.797813  -0.318534
C  1.302141  1.797813  -0.328602
C  8.830644  3.272000  -0.525561
C  15.145562  1.101000  -0.226803
C  0.021251  1.101000  -0.149753
C  11.361143  12.029000  -0.075463
C  2.546438  9.823667  -0.259823
C  11.361143  10.553000  -0.412856
C  2.546438  8.371221  -0.340915
C  10.098375  9.823667  -0.524037
C  16.391568  7.631998  -0.059879
C  1.302141  7.631998  -0.083029
C  10.098375  8.371221  -0.719825
C  16.391568  6.197900  -0.059048
C  1.302141  6.197900  -0.100412
C  15.145562  5.453610  -0.337424
C  0.021251  5.453610  -0.070974
C  8.830644  7.631998  -0.762259
C  8.830644  6.197900  -0.786719
C  15.145562  4.000000  -0.275070
C  0.021251  4.000000  -0.271913
C  7.582124  5.453610  -0.765091
C  13.876357  3.272000  -0.287465
C  -1.214289  3.272000  -0.184106
C  7.582124  4.000000  -0.595800
C  13.876357  1.797813  -0.142411
C  -1.214289  1.797813  -0.091925
C  10.098375  12.724286  0.014322
C  1.302141  10.553000  -0.318110
C  8.830644  12.029000  -0.116568
C  15.145562  9.823667  -0.258935
C  0.021251  9.823667  -0.247376
C  8.830644  10.553000  -0.433260
C  15.145562  8.371221  -0.321211
C  0.021251  8.371221  -0.047374
C  7.582124  9.823667  -0.529098
C  13.876357  7.631998  -0.664631
C  -1.214289  7.631998  0.008806
C  7.582124  8.371221  -0.717082
C  13.876357  6.197900  -0.669792
C  -1.214289  6.197900  -0.006381
C  6.330357  7.631998  -0.809594
C  12.623562  5.453610  -0.767943
C  -2.463372  5.453610  0.093088
C  6.330357  6.197900  -0.822530
C  12.623562  4.000000  -0.504560
C  -2.463372  4.000000  0.067608
C  7.582124  12.724286  0.028509
C  13.876357  10.553000  -0.239432
C  -1.214289  10.553000  -0.184792
C  6.330357  12.029000  -0.047028
C  12.623562  9.823667  -0.476520
C  -2.463372  9.823667  0.047178
C  6.330357  10.553000  -0.392466
C  12.623562  8.371221  -0.744619
C  -2.463372  8.371221  0.102951
C  5.067250  9.823667  -0.459905
C  -3.721000  7.631998  0.161037
C  5.067250  8.371221  -0.754022
C  -3.721000  6.197900  0.158096
C  5.067250  12.724286  0.017397
C  3.815571  12.029000  -0.047593
C  3.815571  10.553000  -0.225433
C  2.546438  12.724286  -0.153899
C  1.302141  12.029000  -0.280157
C  6.330357  3.272000  -0.481031
C  15.145562  12.724286  -0.185107
C  0.021251  12.724286  -0.120531
C  13.876357  12.029000  -0.079347
C  -1.214289  12.029000  -0.097388
C  12.623562  12.724286  -0.015964
C  6.330357  1.797813  -0.171590
C  8.830644  1.797813  -0.248327
C  11.361143  1.797813  -0.181023
C  10.098375  1.101000  -0.135039
C  7.582124  1.101000  -0.130644
C  5.067250  1.101000  -0.106923
C  12.623562  1.101000  -0.127188
