142
frame	652
H  17.693000  13.826000  0.000000
H  19.858000  12.564000  0.000000
H  21.106000  10.363000  0.000000
H  22.366000  5.656000  0.000000
H  22.367000  8.165000  0.000000
H  19.852000  1.261000  0.000000
H  17.690000  -0.000000  0.000000
H  21.104000  3.459000  0.000000
H  2.530000  -0.005000  0.000000
H  15.160000  -0.002000  0.000000
H  0.000000  -0.000000  0.000000
H  -2.163000  1.262000  0.000000
H  -3.415000  3.463000  0.000000
H  -4.677000  8.168000  0.000000
H  -4.678000  5.662000  0.000000
H  -2.159000  12.565000  0.000000
H  10.109000  13.837000  0.000000
H  7.585000  13.838000  0.000000
H  5.062000  13.833000  0.000000
H  2.535000  13.828000  0.000000
H  15.163000  13.830000  0.000000
H  0.007000  13.825000  0.000000
H  -3.412000  10.366000  0.000000
H  12.635000  13.835000  0.000000
H  10.108000  -0.010000  0.000000
H  7.583000  -0.012000  0.000000
H  5.058000  -0.011000  0.000000
H  12.631000  -0.009000  0.000000
C  16.391568  10.553000  0.126626
C  16.391568  12.029000  0.041019
C  17.670751  12.724286  0.007614
C  17.670751  8.371221  0.463982
C  17.670751  9.823667  0.257774
C  18.905140  10.553000  0.234615
C  18.905140  12.029000  0.064893
C  17.670751  4.000000  0.267156
C  17.670751  5.453610  0.472130
C  18.905140  6.197900  0.498085
C  18.905140  7.631998  0.484266
C  20.154752  8.371221  0.416421
C  20.154752  9.823667  0.318050
C  18.905140  3.272000  0.262897
C  20.154752  4.000000  0.340844
C  20.154752  5.453610  0.414791
C  21.411000  6.197900  0.316259
C  21.411000  7.631998  0.310110
C  17.670751  1.101000  -0.000870
C  18.905140  1.797813  0.078532
C  5.067250  5.453610  -0.070960
C  5.067250  4.000000  0.027545
C  3.815571  3.272000  0.259302
C  3.815571  1.797813  0.147765
C  11.361143  3.272000  -0.095347
C  2.546438  1.101000  0.072051
C  3.815571  7.631998  0.295502
C  3.815571  6.197900  0.277745
C  11.361143  7.631998  -0.223464
C  2.546438  5.453610  0.424894
C  11.361143  6.197900  -0.244083
C  2.546438  4.000000  0.297381
C  10.098375  5.453610  -0.129403
C  16.391568  3.272000  0.114727
C  1.302141  3.272000  0.106666
C  10.098375  4.000000  -0.226873
C  16.391568  1.797813  0.009764
C  1.302141  1.797813  0.016034
C  8.830644  3.272000  -0.183512
C  15.145562  1.101000  0.063309
C  0.021251  1.101000  0.001376
C  11.361143  12.029000  -0.003946
C  2.546438  9.823667  0.333621
C  11.361143  10.553000  -0.041315
C  2.546438  8.371221  0.455660
C  10.098375  9.823667  -0.173844
C  16.391568  7.631998  0.524308
C  1.302141  7.631998  0.540912
C  10.098375  8.371221  -0.103783
C  16.391568  6.197900  0.541557
C  1.302141  6.197900  0.527824
C  15.145562  5.453610  0.430394
C  0.021251  5.453610  0.462479
C  8.830644  7.631998  0.047600
C  8.830644  6.197900  0.032145
C  15.145562  4.000000  0.291807
C  0.021251  4.000000  0.248975
C  7.582124  5.453610  -0.097834
C  13.876357  3.272000  0.252314
C  -1.214289  3.272000  0.204451
C  7.582124  4.000000  -0.219860
C  13.876357  1.797813  0.123495
C  -1.214289  1.797813  0.048036
C  10.098375  12.724286  0.108844
C  1.302141  10.553000  0.146442
C  8.830644  12.029000  -0.000574
C  15.145562  9.823667  0.314790
C  0.021251  9.823667  0.256211
C  8.830644  10.553000  -0.110759
C  15.145562  8.371221  0.436546
C  0.021251  8.371221  0.466322
C  7.582124  9.823667  -0.163647
C  13.876357  7.631998  0.279236
C  -1.214289  7.631998  0.437327
C  7.582124  8.371221  -0.070900
C  13.876357  6.197900  0.267450
C  -1.214289  6.197900  0.449108
C  6.330357  7.631998  -0.224251
C  12.623562  5.453610  -0.091080
C  -2.463372  5.453610  0.333925
C  6.330357  6.197900  -0.223473
C  12.623562  4.000000  0.003597
C  -2.463372  4.000000  0.263188
C  7.582124  12.724286  0.107859
C  13.876357  10.553000  0.269728
C  -1.214289  10.553000  0.204541
C  6.330357  12.029000  0.029346
C  12.623562  9.823667  0.028008
C  -2.463372  9.823667  0.262434
C  6.330357  10.553000  -0.015965
C  12.623562  8.371221  -0.074451
C  -2.463372  8.371221  0.331393
C  5.067250  9.823667  0.085097
C  -3.721000  7.631998  0.194004
C  5.067250  8.371221  -0.041150
C  -3.721000  6.197900  0.196428
C  5.067250  12.724286  0.123528
C  3.815571  12.029000  0.231379
C  3.815571  10.553000  0.317498
C  2.546438  12.724286  0.155931
C  1.302141  12.029000  0.062483
C  6.330357  3.272000  -0.077171
C  15.145562  12.724286  0.096244
C  0.021251  12.724286  0.011214
C  13.876357  12.029000  0.184598
C  -1.214289  12.029000  0.050585
C  12.623562  12.724286  0.081077
C  6.330357  1.797813  -0.100077
C  8.830644  1.797813  -0.126418
C  11.361143  1.797813  -0.099542
C  10.098375  1.101000  -0.028681
C  7.582124  1.101000  -0.036595
C  5.067250  1.101000  -0.004051
C  12.623562  1.101000  -0.028947
