142
frame	391
H  17.693000  13.826000  0.000000
H  19.858000  12.564000  0.000000
H  21.106000  10.363000  0.000000
H  22.366000  5.656000  0.000000
H  22.367000  8.165000  0.000000
H  19.852000  1.261000  0.000000
H  17.690000  -0.000000  0.000000
H  21.104000  3.459000  0.000000
H  2.530000  -0.005000  0.000000
H  15.160000  -0.002000  0.000000
H  0.000000  -0.000000  0.000000
H  -2.163000  1.262000  0.000000
H  -3.415000  3.463000  0.000000
H  -4.677000  8.168000  0.000000
H  -4.678000  5.662000  0.000000
H  -2.159000  12.565000  0.000000
H  10.109000  13.837000  0.000000
H  7.585000  13.838000  0.000000
H  5.062000  13.833000  0.000000
H  2.535000  13.828000  0.000000
H  15.163000  13.830000  0.000000
H  0.007000  13.825000  0.000000
H  -3.412000  10.366000  0.000000
H  12.635000  13.835000  0.000000
H  10.108000  -0.010000  0.000000
H  7.583000  -0.012000  0.000000
H  5.058000  -0.011000  0.000000
H  12.631000  -0.009000  0.000000
C  16.391568  10.553000  -0.503197
C  16.391568  12.029000  -0.345008
C  17.670751  12.724286  -0.166616
C  17.670751  8.371221  -0.510027
C  17.670751  9.823667  -0.580502
C  18.905140  10.553000  -0.320160
C  18.905140  12.029000  -0.104302
C  17.670751  4.000000  -0.594407
C  17.670751  5.453610  -0.519404
C  18.905140  6.197900  -0.325454
C  18.905140  7.631998  -0.320173
C  20.154752  8.371221  -0.215936
C  20.154752  9.823667  -0.147404
C  18.905140  3.272000  -0.301720
C  20.154752  4.000000  -0.129481
C  20.154752  5.453610  -0.208108
C  21.411000  6.197900  -0.063910
C  21.411000  7.631998  -0.068097
C  17.670751  1.101000  -0.179307
C  18.905140  1.797813  -0.103218
C  5.067250  5.453610  -0.533401
C  5.067250  4.000000  -0.469225
C  3.815571  3.272000  -0.417265
C  3.815571  1.797813  -0.256829
C  11.361143  3.272000  -0.470982
C  2.546438  1.101000  -0.237737
C  3.815571  7.631998  -0.645672
C  3.815571  6.197900  -0.657834
C  11.361143  7.631998  -0.264523
C  2.546438  5.453610  -0.518520
C  11.361143  6.197900  -0.272668
C  2.546438  4.000000  -0.476848
C  10.098375  5.453610  -0.274812
C  16.391568  3.272000  -0.512989
C  1.302141  3.272000  -0.577322
C  10.098375  4.000000  -0.335099
C  16.391568  1.797813  -0.377669
C  1.302141  1.797813  -0.394315
C  8.830644  3.272000  -0.335767
C  15.145562  1.101000  -0.230517
C  0.021251  1.101000  -0.201346
C  11.361143  12.029000  -0.243964
C  2.546438  9.823667  -0.432919
C  11.361143  10.553000  -0.384839
C  2.546438  8.371221  -0.506717
C  10.098375  9.823667  -0.265701
C  16.391568  7.631998  -0.510098
C  1.302141  7.631998  -0.558997
C  10.098375  8.371221  -0.239323
C  16.391568  6.197900  -0.502456
C  1.302141  6.197900  -0.569230
C  15.145562  5.453610  -0.472436
C  0.021251  5.453610  -0.590464
C  8.830644  7.631998  -0.219861
C  8.830644  6.197900  -0.226624
C  15.145562  4.000000  -0.437361
C  0.021251  4.000000  -0.667392
C  7.582124  5.453610  -0.282961
C  13.876357  3.272000  -0.386018
C  -1.214289  3.272000  -0.375515
C  7.582124  4.000000  -0.318415
C  13.876357  1.797813  -0.221821
C  -1.214289  1.797813  -0.136599
C  10.098375  12.724286  -0.183170
C  1.302141  10.553000  -0.549234
C  8.830644  12.029000  -0.189513
C  15.145562  9.823667  -0.408622
C  0.021251  9.823667  -0.659015
C  8.830644  10.553000  -0.238208
C  15.145562  8.371221  -0.473830
C  0.021251  8.371221  -0.574234
C  7.582124  9.823667  -0.265867
C  13.876357  7.631998  -0.616094
C  -1.214289  7.631998  -0.399944
C  7.582124  8.371221  -0.259223
C  13.876357  6.197900  -0.621989
C  -1.214289  6.197900  -0.409191
C  6.330357  7.631998  -0.282574
C  12.623562  5.453610  -0.511526
C  -2.463372  5.453610  -0.296268
C  6.330357  6.197900  -0.290023
C  12.623562  4.000000  -0.454031
C  -2.463372  4.000000  -0.209947
C  7.582124  12.724286  -0.157225
C  13.876357  10.553000  -0.329161
C  -1.214289  10.553000  -0.369687
C  6.330357  12.029000  -0.217870
C  12.623562  9.823667  -0.406456
C  -2.463372  9.823667  -0.228875
C  6.330357  10.553000  -0.372587
C  12.623562  8.371221  -0.490445
C  -2.463372  8.371221  -0.291948
C  5.067250  9.823667  -0.398795
C  -3.721000  7.631998  -0.196032
C  5.067250  8.371221  -0.508007
C  -3.721000  6.197900  -0.185749
C  5.067250  12.724286  -0.069972
C  3.815571  12.029000  -0.161325
C  3.815571  10.553000  -0.353241
C  2.546438  12.724286  -0.171911
C  1.302141  12.029000  -0.359601
C  6.330357  3.272000  -0.451711
C  15.145562  12.724286  -0.187530
C  0.021251  12.724286  -0.169552
C  13.876357  12.029000  -0.165762
C  -1.214289  12.029000  -0.123688
C  12.623562  12.724286  -0.088545
C  6.330357  1.797813  -0.337775
C  8.830644  1.797813  -0.326447
C  11.361143  1.797813  -0.349524
C  10.098375  1.101000  -0.321920
C  7.582124  1.101000  -0.316288
C  5.067250  1.101000  -0.183894
C  12.623562  1.101000  -0.184443
