142
frame	763
H  17.693000  13.826000  0.000000
H  19.858000  12.564000  0.000000
H  21.106000  10.363000  0.000000
H  22.366000  5.656000  0.000000
H  22.367000  8.165000  0.000000
H  19.852000  1.261000  0.000000
H  17.690000  -0.000000  0.000000
H  21.104000  3.459000  0.000000
H  2.530000  -0.005000  0.000000
H  15.160000  -0.002000  0.000000
H  0.000000  -0.000000  0.000000
H  -2.163000  1.262000  0.000000
H  -3.415000  3.463000  0.000000
H  -4.677000  8.168000  0.000000
H  -4.678000  5.662000  0.000000
H  -2.159000  12.565000  0.000000
H  10.109000  13.837000  0.000000
H  7.585000  13.838000  0.000000
H  5.062000  13.833000  0.000000
H  2.535000  13.828000  0.000000
H  15.163000  13.830000  0.000000
H  0.007000  13.825000  0.000000
H  -3.412000  10.366000  0.000000
H  12.635000  13.835000  0.000000
H  10.108000  -0.010000  0.000000
H  7.583000  -0.012000  0.000000
H  5.058000  -0.011000  0.000000
H  12.631000  -0.009000  0.000000
C  16.391568  10.553000  0.402637
C  16.391568  12.029000  0.182591
C  17.670751  12.724286  0.074848
C  17.670751  8.371221  0.617166
C  17.670751  9.823667  0.438290
C  18.905140  10.553000  0.207107
C  18.905140  12.029000  0.058961
C  17.670751  4.000000  0.439728
C  17.670751  5.453610  0.612457
C  18.905140  6.197900  0.512191
C  18.905140  7.631998  0.524611
C  20.154752  8.371221  0.366823
C  20.154752  9.823667  0.228965
C  18.905140  3.272000  0.211391
C  20.154752  4.000000  0.240584
C  20.154752  5.453610  0.381147
C  21.411000  6.197900  0.378901
C  21.411000  7.631998  0.365438
C  17.670751  1.101000  0.078907
C  18.905140  1.797813  0.078309
C  5.067250  5.453610  0.200615
C  5.067250  4.000000  0.201590
C  3.815571  3.272000  0.324394
C  3.815571  1.797813  0.234010
C  11.361143  3.272000  0.146608
C  2.546438  1.101000  0.125780
C  3.815571  7.631998  0.358050
C  3.815571  6.197900  0.340033
C  11.361143  7.631998  0.228045
C  2.546438  5.453610  0.541998
C  11.361143  6.197900  0.221100
C  2.546438  4.000000  0.403802
C  10.098375  5.453610  0.410825
C  16.391568  3.272000  0.378144
C  1.302141  3.272000  0.387961
C  10.098375  4.000000  0.238119
C  16.391568  1.797813  0.162564
C  1.302141  1.797813  0.169975
C  8.830644  3.272000  0.142264
C  15.145562  1.101000  0.088737
C  0.021251  1.101000  0.077465
C  11.361143  12.029000  0.179219
C  2.546438  9.823667  0.462066
C  11.361143  10.553000  0.225280
C  2.546438  8.371221  0.568936
C  10.098375  9.823667  0.326135
C  16.391568  7.631998  0.639755
C  1.302141  7.631998  0.645207
C  10.098375  8.371221  0.439633
C  16.391568  6.197900  0.619417
C  1.302141  6.197900  0.626286
C  15.145562  5.453610  0.522555
C  0.021251  5.453610  0.593571
C  8.830644  7.631998  0.560893
C  8.830644  6.197900  0.534024
C  15.145562  4.000000  0.380947
C  0.021251  4.000000  0.414329
C  7.582124  5.453610  0.439866
C  13.876357  3.272000  0.296880
C  -1.214289  3.272000  0.170194
C  7.582124  4.000000  0.274558
C  13.876357  1.797813  0.218628
C  -1.214289  1.797813  0.052292
C  10.098375  12.724286  0.065305
C  1.302141  10.553000  0.422867
C  8.830644  12.029000  0.097115
C  15.145562  9.823667  0.398824
C  0.021251  9.823667  0.435485
C  8.830644  10.553000  0.251676
C  15.145562  8.371221  0.527724
C  0.021251  8.371221  0.621190
C  7.582124  9.823667  0.342397
C  13.876357  7.631998  0.324413
C  -1.214289  7.631998  0.491328
C  7.582124  8.371221  0.469546
C  13.876357  6.197900  0.312347
C  -1.214289  6.197900  0.491098
C  6.330357  7.631998  0.286994
C  12.623562  5.453610  0.162026
C  -2.463372  5.453610  0.317475
C  6.330357  6.197900  0.266147
C  12.623562  4.000000  0.168621
C  -2.463372  4.000000  0.173106
C  7.582124  12.724286  0.077512
C  13.876357  10.553000  0.342777
C  -1.214289  10.553000  0.184003
C  6.330357  12.029000  0.199331
C  12.623562  9.823667  0.226689
C  -2.463372  9.823667  0.168374
C  6.330357  10.553000  0.247012
C  12.623562  8.371221  0.179712
C  -2.463372  8.371221  0.320075
C  5.067250  9.823667  0.282719
C  -3.721000  7.631998  0.266287
C  5.067250  8.371221  0.219343
C  -3.721000  6.197900  0.266726
C  5.067250  12.724286  0.220013
C  3.815571  12.029000  0.328797
C  3.815571  10.553000  0.403361
C  2.546438  12.724286  0.192507
C  1.302141  12.029000  0.218686
C  6.330357  3.272000  0.151097
C  15.145562  12.724286  0.141457
C  0.021251  12.724286  0.097592
C  13.876357  12.029000  0.280719
C  -1.214289  12.029000  0.059766
C  12.623562  12.724286  0.161170
C  6.330357  1.797813  0.082315
C  8.830644  1.797813  -0.046911
C  11.361143  1.797813  0.082970
C  10.098375  1.101000  -0.070235
C  7.582124  1.101000  -0.072020
C  5.067250  1.101000  0.088581
C  12.623562  1.101000  0.100224
