142
frame	771
H  17.693000  13.826000  0.000000
H  19.858000  12.564000  0.000000
H  21.106000  10.363000  0.000000
H  22.366000  5.656000  0.000000
H  22.367000  8.165000  0.000000
H  19.852000  1.261000  0.000000
H  17.690000  -0.000000  0.000000
H  21.104000  3.459000  0.000000
H  2.530000  -0.005000  0.000000
H  15.160000  -0.002000  0.000000
H  0.000000  -0.000000  0.000000
H  -2.163000  1.262000  0.000000
H  -3.415000  3.463000  0.000000
H  -4.677000  8.168000  0.000000
H  -4.678000  5.662000  0.000000
H  -2.159000  12.565000  0.000000
H  10.109000  13.837000  0.000000
H  7.585000  13.838000  0.000000
H  5.062000  13.833000  0.000000
H  2.535000  13.828000  0.000000
H  15.163000  13.830000  0.000000
H  0.007000  13.825000  0.000000
H  -3.412000  10.366000  0.000000
H  12.635000  13.835000  0.000000
H  10.108000  -0.010000  0.000000
H  7.583000  -0.012000  0.000000
H  5.058000  -0.011000  0.000000
H  12.631000  -0.009000  0.000000
C  16.391568  10.553000  0.393978
C  16.391568  12.029000  0.175376
C  17.670751  12.724286  0.031501
C  17.670751  8.371221  0.614430
C  17.670751  9.823667  0.466256
C  18.905140  10.553000  0.141850
C  18.905140  12.029000  -0.046193
C  17.670751  4.000000  0.466374
C  17.670751  5.453610  0.605460
C  18.905140  6.197900  0.442215
C  18.905140  7.631998  0.435060
C  20.154752  8.371221  0.330788
C  20.154752  9.823667  0.149256
C  18.905140  3.272000  0.145047
C  20.154752  4.000000  0.159407
C  20.154752  5.453610  0.338003
C  21.411000  6.197900  0.415517
C  21.411000  7.631998  0.406230
C  17.670751  1.101000  0.044741
C  18.905140  1.797813  -0.032242
C  5.067250  5.453610  0.301064
C  5.067250  4.000000  0.278170
C  3.815571  3.272000  0.290650
C  3.815571  1.797813  0.206662
C  11.361143  3.272000  0.258643
C  2.546438  1.101000  0.166024
C  3.815571  7.631998  0.422362
C  3.815571  6.197900  0.411073
C  11.361143  7.631998  0.263178
C  2.546438  5.453610  0.513420
C  11.361143  6.197900  0.249211
C  2.546438  4.000000  0.360274
C  10.098375  5.453610  0.418115
C  16.391568  3.272000  0.368905
C  1.302141  3.272000  0.382451
C  10.098375  4.000000  0.244388
C  16.391568  1.797813  0.148140
C  1.302141  1.797813  0.158025
C  8.830644  3.272000  0.158326
C  15.145562  1.101000  0.145423
C  0.021251  1.101000  0.043631
C  11.361143  12.029000  0.151347
C  2.546438  9.823667  0.415999
C  11.361143  10.553000  0.328780
C  2.546438  8.371221  0.542765
C  10.098375  9.823667  0.335494
C  16.391568  7.631998  0.680704
C  1.302141  7.631998  0.690475
C  10.098375  8.371221  0.453059
C  16.391568  6.197900  0.674569
C  1.302141  6.197900  0.681337
C  15.145562  5.453610  0.496524
C  0.021251  5.453610  0.591523
C  8.830644  7.631998  0.512921
C  8.830644  6.197900  0.501072
C  15.145562  4.000000  0.342344
C  0.021251  4.000000  0.453185
C  7.582124  5.453610  0.445803
C  13.876357  3.272000  0.266338
C  -1.214289  3.272000  0.098067
C  7.582124  4.000000  0.289106
C  13.876357  1.797813  0.190783
C  -1.214289  1.797813  -0.065702
C  10.098375  12.724286  0.063235
C  1.302141  10.553000  0.421570
C  8.830644  12.029000  0.096057
C  15.145562  9.823667  0.363781
C  0.021251  9.823667  0.477830
C  8.830644  10.553000  0.265931
C  15.145562  8.371221  0.501198
C  0.021251  8.371221  0.615166
C  7.582124  9.823667  0.360387
C  13.876357  7.631998  0.382308
C  -1.214289  7.631998  0.414310
C  7.582124  8.371221  0.469869
C  13.876357  6.197900  0.377992
C  -1.214289  6.197900  0.414249
C  6.330357  7.631998  0.317110
C  12.623562  5.453610  0.266371
C  -2.463372  5.453610  0.274621
C  6.330357  6.197900  0.298667
C  12.623562  4.000000  0.252358
C  -2.463372  4.000000  0.095857
C  7.582124  12.724286  0.082450
C  13.876357  10.553000  0.309952
C  -1.214289  10.553000  0.115591
C  6.330357  12.029000  0.169890
C  12.623562  9.823667  0.306358
C  -2.463372  9.823667  0.088633
C  6.330357  10.553000  0.362077
C  12.623562  8.371221  0.282289
C  -2.463372  8.371221  0.282455
C  5.067250  9.823667  0.345034
C  -3.721000  7.631998  0.306808
C  5.067250  8.371221  0.330867
C  -3.721000  6.197900  0.316952
C  5.067250  12.724286  0.170563
C  3.815571  12.029000  0.304579
C  3.815571  10.553000  0.365149
C  2.546438  12.724286  0.242946
C  1.302141  12.029000  0.202753
C  6.330357  3.272000  0.262699
C  15.145562  12.724286  0.198731
C  0.021251  12.724286  0.070910
C  13.876357  12.029000  0.256851
C  -1.214289  12.029000  -0.069931
C  12.623562  12.724286  0.118795
C  6.330357  1.797813  0.046870
C  8.830644  1.797813  -0.042762
C  11.361143  1.797813  0.047334
C  10.098375  1.101000  -0.072354
C  7.582124  1.101000  -0.066026
C  5.067250  1.101000  0.045302
C  12.623562  1.101000  0.041806
