142
frame	836
H  17.693000  13.826000  0.000000
H  19.858000  12.564000  0.000000
H  21.106000  10.363000  0.000000
H  22.366000  5.656000  0.000000
H  22.367000  8.165000  0.000000
H  19.852000  1.261000  0.000000
H  17.690000  -0.000000  0.000000
H  21.104000  3.459000  0.000000
H  2.530000  -0.005000  0.000000
H  15.160000  -0.002000  0.000000
H  0.000000  -0.000000  0.000000
H  -2.163000  1.262000  0.000000
H  -3.415000  3.463000  0.000000
H  -4.677000  8.168000  0.000000
H  -4.678000  5.662000  0.000000
H  -2.159000  12.565000  0.000000
H  10.109000  13.837000  0.000000
H  7.585000  13.838000  0.000000
H  5.062000  13.833000  0.000000
H  2.535000  13.828000  0.000000
H  15.163000  13.830000  0.000000
H  0.007000  13.825000  0.000000
H  -3.412000  10.366000  0.000000
H  12.635000  13.835000  0.000000
H  10.108000  -0.010000  0.000000
H  7.583000  -0.012000  0.000000
H  5.058000  -0.011000  0.000000
H  12.631000  -0.009000  0.000000
C  16.391568  10.553000  0.120206
C  16.391568  12.029000  0.007679
C  17.670751  12.724286  0.047356
C  17.670751  8.371221  0.148295
C  17.670751  9.823667  0.190098
C  18.905140  10.553000  0.232696
C  18.905140  12.029000  0.173862
C  17.670751  4.000000  0.175405
C  17.670751  5.453610  0.146024
C  18.905140  6.197900  0.097745
C  18.905140  7.631998  0.101858
C  20.154752  8.371221  0.175817
C  20.154752  9.823667  0.205828
C  18.905140  3.272000  0.235693
C  20.154752  4.000000  0.219895
C  20.154752  5.453610  0.195476
C  21.411000  6.197900  0.183630
C  21.411000  7.631998  0.183409
C  17.670751  1.101000  0.038522
C  18.905140  1.797813  0.187338
C  5.067250  5.453610  0.781299
C  5.067250  4.000000  0.568329
C  3.815571  3.272000  0.386235
C  3.815571  1.797813  0.146192
C  11.361143  3.272000  0.356075
C  2.546438  1.101000  -0.051591
C  3.815571  7.631998  0.963434
C  3.815571  6.197900  0.944450
C  11.361143  7.631998  0.684156
C  2.546438  5.453610  0.613142
C  11.361143  6.197900  0.666192
C  2.546438  4.000000  0.362695
C  10.098375  5.453610  0.466563
C  16.391568  3.272000  0.107082
C  1.302141  3.272000  0.094210
C  10.098375  4.000000  0.376221
C  16.391568  1.797813  -0.020666
C  1.302141  1.797813  -0.025715
C  8.830644  3.272000  0.266054
C  15.145562  1.101000  -0.042606
C  0.021251  1.101000  0.034595
C  11.361143  12.029000  0.323917
C  2.546438  9.823667  0.401631
C  11.361143  10.553000  0.452316
C  2.546438  8.371221  0.622453
C  10.098375  9.823667  0.443698
C  16.391568  7.631998  0.299378
C  1.302141  7.631998  0.320781
C  10.098375  8.371221  0.491293
C  16.391568  6.197900  0.285383
C  1.302141  6.197900  0.319513
C  15.145562  5.453610  0.579898
C  0.021251  5.453610  0.154843
C  8.830644  7.631998  0.563675
C  8.830644  6.197900  0.554563
C  15.145562  4.000000  0.341578
C  0.021251  4.000000  0.169154
C  7.582124  5.453610  0.475693
C  13.876357  3.272000  0.358463
C  -1.214289  3.272000  0.224535
C  7.582124  4.000000  0.385292
C  13.876357  1.797813  0.124459
C  -1.214289  1.797813  0.169244
C  10.098375  12.724286  0.293462
C  1.302141  10.553000  0.129075
C  8.830644  12.029000  0.365391
C  15.145562  9.823667  0.378732
C  0.021251  9.823667  0.193153
C  8.830644  10.553000  0.352124
C  15.145562  8.371221  0.595424
C  0.021251  8.371221  0.159065
C  7.582124  9.823667  0.464902
C  13.876357  7.631998  0.932130
C  -1.214289  7.631998  0.090689
C  7.582124  8.371221  0.502275
C  13.876357  6.197900  0.925495
C  -1.214289  6.197900  0.084264
C  6.330357  7.631998  0.695241
C  12.623562  5.453610  0.767337
C  -2.463372  5.453610  0.133256
C  6.330357  6.197900  0.673072
C  12.623562  4.000000  0.546341
C  -2.463372  4.000000  0.174377
C  7.582124  12.724286  0.308428
C  13.876357  10.553000  0.421302
C  -1.214289  10.553000  0.224722
C  6.330357  12.029000  0.357898
C  12.623562  9.823667  0.609079
C  -2.463372  9.823667  0.169214
C  6.330357  10.553000  0.472297
C  12.623562  8.371221  0.793342
C  -2.463372  8.371221  0.116418
C  5.067250  9.823667  0.633805
C  -3.721000  7.631998  0.063407
C  5.067250  8.371221  0.819174
C  -3.721000  6.197900  0.075778
C  5.067250  12.724286  0.212467
C  3.815571  12.029000  0.240369
C  3.815571  10.553000  0.458615
C  2.546438  12.724286  0.026633
C  1.302141  12.029000  0.022544
C  6.330357  3.272000  0.391979
C  15.145562  12.724286  0.016749
C  0.021251  12.724286  0.082815
C  13.876357  12.029000  0.184008
C  -1.214289  12.029000  0.186872
C  12.623562  12.724286  0.176372
C  6.330357  1.797813  0.240624
C  8.830644  1.797813  0.245287
C  11.361143  1.797813  0.230339
C  10.098375  1.101000  0.155009
C  7.582124  1.101000  0.176894
C  5.067250  1.101000  0.104924
C  12.623562  1.101000  0.093732
