142
frame	295
H  17.693000  13.826000  0.000000
H  19.858000  12.564000  0.000000
H  21.106000  10.363000  0.000000
H  22.366000  5.656000  0.000000
H  22.367000  8.165000  0.000000
H  19.852000  1.261000  0.000000
H  17.690000  -0.000000  0.000000
H  21.104000  3.459000  0.000000
H  2.530000  -0.005000  0.000000
H  15.160000  -0.002000  0.000000
H  0.000000  -0.000000  0.000000
H  -2.163000  1.262000  0.000000
H  -3.415000  3.463000  0.000000
H  -4.677000  8.168000  0.000000
H  -4.678000  5.662000  0.000000
H  -2.159000  12.565000  0.000000
H  10.109000  13.837000  0.000000
H  7.585000  13.838000  0.000000
H  5.062000  13.833000  0.000000
H  2.535000  13.828000  0.000000
H  15.163000  13.830000  0.000000
H  0.007000  13.825000  0.000000
H  -3.412000  10.366000  0.000000
H  12.635000  13.835000  0.000000
H  10.108000  -0.010000  0.000000
H  7.583000  -0.012000  0.000000
H  5.058000  -0.011000  0.000000
H  12.631000  -0.009000  0.000000
C  16.391568  10.553000  -0.209699
C  16.391568  12.029000  -0.100442
C  17.670751  12.724286  -0.062810
C  17.670751  8.371221  -0.386175
C  17.670751  9.823667  -0.139956
C  18.905140  10.553000  0.010509
C  18.905140  12.029000  -0.000363
C  17.670751  4.000000  -0.143980
C  17.670751  5.453610  -0.392894
C  18.905140  6.197900  -0.265034
C  18.905140  7.631998  -0.273006
C  20.154752  8.371221  -0.051068
C  20.154752  9.823667  0.060730
C  18.905140  3.272000  0.021981
C  20.154752  4.000000  0.077732
C  20.154752  5.453610  -0.026336
C  21.411000  6.197900  0.080375
C  21.411000  7.631998  0.087200
C  17.670751  1.101000  -0.073892
C  18.905140  1.797813  0.003608
C  5.067250  5.453610  -0.538488
C  5.067250  4.000000  -0.467138
C  3.815571  3.272000  -0.445569
C  3.815571  1.797813  -0.244997
C  11.361143  3.272000  -0.399087
C  2.546438  1.101000  -0.148767
C  3.815571  7.631998  -0.411690
C  3.815571  6.197900  -0.432829
C  11.361143  7.631998  -0.684757
C  2.546438  5.453610  -0.521271
C  11.361143  6.197900  -0.700958
C  2.546438  4.000000  -0.433237
C  10.098375  5.453610  -0.799415
C  16.391568  3.272000  -0.223592
C  1.302141  3.272000  -0.248624
C  10.098375  4.000000  -0.523815
C  16.391568  1.797813  -0.125159
C  1.302141  1.797813  -0.131858
C  8.830644  3.272000  -0.424071
C  15.145562  1.101000  -0.141655
C  0.021251  1.101000  -0.067035
C  11.361143  12.029000  -0.136179
C  2.546438  9.823667  -0.390868
C  11.361143  10.553000  -0.309049
C  2.546438  8.371221  -0.487195
C  10.098375  9.823667  -0.450542
C  16.391568  7.631998  -0.585391
C  1.302141  7.631998  -0.629936
C  10.098375  8.371221  -0.769311
C  16.391568  6.197900  -0.585027
C  1.302141  6.197900  -0.638681
C  15.145562  5.453610  -0.476546
C  0.021251  5.453610  -0.435629
C  8.830644  7.631998  -0.890751
C  8.830644  6.197900  -0.902026
C  15.145562  4.000000  -0.406754
C  0.021251  4.000000  -0.193585
C  7.582124  5.453610  -0.800359
C  13.876357  3.272000  -0.436837
C  -1.214289  3.272000  -0.045815
C  7.582124  4.000000  -0.520374
C  13.876357  1.797813  -0.222442
C  -1.214289  1.797813  -0.003281
C  10.098375  12.724286  -0.043286
C  1.302141  10.553000  -0.215134
C  8.830644  12.029000  -0.163378
C  15.145562  9.823667  -0.393166
C  0.021251  9.823667  -0.177394
C  8.830644  10.553000  -0.328330
C  15.145562  8.371221  -0.464251
C  0.021251  8.371221  -0.448773
C  7.582124  9.823667  -0.439679
C  13.876357  7.631998  -0.405816
C  -1.214289  7.631998  -0.359476
C  7.582124  8.371221  -0.770269
C  13.876357  6.197900  -0.408997
C  -1.214289  6.197900  -0.353605
C  6.330357  7.631998  -0.691650
C  12.623562  5.453610  -0.522176
C  -2.463372  5.453610  -0.127867
C  6.330357  6.197900  -0.699767
C  12.623562  4.000000  -0.456750
C  -2.463372  4.000000  -0.011984
C  7.582124  12.724286  -0.021227
C  13.876357  10.553000  -0.376002
C  -1.214289  10.553000  -0.032500
C  6.330357  12.029000  -0.121618
C  12.623562  9.823667  -0.395449
C  -2.463372  9.823667  -0.006190
C  6.330357  10.553000  -0.302445
C  12.623562  8.371221  -0.498827
C  -2.463372  8.371221  -0.134066
C  5.067250  9.823667  -0.403841
C  -3.721000  7.631998  -0.057322
C  5.067250  8.371221  -0.496277
C  -3.721000  6.197900  -0.039060
C  5.067250  12.724286  -0.006309
C  3.815571  12.029000  -0.147897
C  3.815571  10.553000  -0.372872
C  2.546438  12.724286  -0.063784
C  1.302141  12.029000  -0.079532
C  6.330357  3.272000  -0.406660
C  15.145562  12.724286  -0.085614
C  0.021251  12.724286  -0.043243
C  13.876357  12.029000  -0.167402
C  -1.214289  12.029000  0.001209
C  12.623562  12.724286  -0.036143
C  6.330357  1.797813  -0.236237
C  8.830644  1.797813  -0.285084
C  11.361143  1.797813  -0.230738
C  10.098375  1.101000  -0.168202
C  7.582124  1.101000  -0.164238
C  5.067250  1.101000  -0.132204
C  12.623562  1.101000  -0.118153
