142
frame	174
H  17.693000  13.826000  0.000000
H  19.858000  12.564000  0.000000
H  21.106000  10.363000  0.000000
H  22.366000  5.656000  0.000000
H  22.367000  8.165000  0.000000
H  19.852000  1.261000  0.000000
H  17.690000  -0.000000  0.000000
H  21.104000  3.459000  0.000000
H  2.530000  -0.005000  0.000000
H  15.160000  -0.002000  0.000000
H  0.000000  -0.000000  0.000000
H  -2.163000  1.262000  0.000000
H  -3.415000  3.463000  0.000000
H  -4.677000  8.168000  0.000000
H  -4.678000  5.662000  0.000000
H  -2.159000  12.565000  0.000000
H  10.109000  13.837000  0.000000
H  7.585000  13.838000  0.000000
H  5.062000  13.833000  0.000000
H  2.535000  13.828000  0.000000
H  15.163000  13.830000  0.000000
H  0.007000  13.825000  0.000000
H  -3.412000  10.366000  0.000000
H  12.635000  13.835000  0.000000
H  10.108000  -0.010000  0.000000
H  7.583000  -0.012000  0.000000
H  5.058000  -0.011000  0.000000
H  12.631000  -0.009000  0.000000
C  16.391568  10.553000  -0.005651
C  16.391568  12.029000  -0.000426
C  17.670751  12.724286  0.185150
C  17.670751  8.371221  -0.004403
C  17.670751  9.823667  0.141335
C  18.905140  10.553000  0.434305
C  18.905140  12.029000  0.384397
C  17.670751  4.000000  0.146659
C  17.670751  5.453610  0.012110
C  18.905140  6.197900  0.176695
C  18.905140  7.631998  0.182778
C  20.154752  8.371221  0.335688
C  20.154752  9.823667  0.391053
C  18.905140  3.272000  0.445636
C  20.154752  4.000000  0.413059
C  20.154752  5.453610  0.336106
C  21.411000  6.197900  0.289284
C  21.411000  7.631998  0.280349
C  17.670751  1.101000  0.177562
C  18.905140  1.797813  0.382445
C  5.067250  5.453610  -0.458224
C  5.067250  4.000000  -0.572805
C  3.815571  3.272000  -0.382630
C  3.815571  1.797813  -0.330914
C  11.361143  3.272000  -0.717865
C  2.546438  1.101000  -0.236673
C  3.815571  7.631998  -0.347246
C  3.815571  6.197900  -0.350377
C  11.361143  7.631998  -0.390608
C  2.546438  5.453610  -0.114928
C  11.361143  6.197900  -0.416021
C  2.546438  4.000000  -0.128893
C  10.098375  5.453610  -0.621555
C  16.391568  3.272000  -0.012643
C  1.302141  3.272000  -0.029345
C  10.098375  4.000000  -0.761089
C  16.391568  1.797813  -0.022330
C  1.302141  1.797813  -0.026701
C  8.830644  3.272000  -0.730546
C  15.145562  1.101000  -0.228332
C  0.021251  1.101000  0.179062
C  11.361143  12.029000  -0.315322
C  2.546438  9.823667  -0.087699
C  11.361143  10.553000  -0.659802
C  2.546438  8.371221  -0.112701
C  10.098375  9.823667  -0.709975
C  16.391568  7.631998  -0.058803
C  1.302141  7.631998  -0.046538
C  10.098375  8.371221  -0.576869
C  16.391568  6.197900  -0.047809
C  1.302141  6.197900  -0.058660
C  15.145562  5.453610  -0.129599
C  0.021251  5.453610  -0.023478
C  8.830644  7.631998  -0.619212
C  8.830644  6.197900  -0.651446
C  15.145562  4.000000  -0.128544
C  0.021251  4.000000  0.126916
C  7.582124  5.453610  -0.613723
C  13.876357  3.272000  -0.389035
C  -1.214289  3.272000  0.427249
C  7.582124  4.000000  -0.754481
C  13.876357  1.797813  -0.335611
C  -1.214289  1.797813  0.370178
C  10.098375  12.724286  -0.218033
C  1.302141  10.553000  0.004681
C  8.830644  12.029000  -0.289515
C  15.145562  9.823667  -0.106325
C  0.021251  9.823667  0.135587
C  8.830644  10.553000  -0.659523
C  15.145562  8.371221  -0.110527
C  0.021251  8.371221  -0.008382
C  7.582124  9.823667  -0.699942
C  13.876357  7.631998  -0.361495
C  -1.214289  7.631998  0.137360
C  7.582124  8.371221  -0.576660
C  13.876357  6.197900  -0.362588
C  -1.214289  6.197900  0.137340
C  6.330357  7.631998  -0.393882
C  12.623562  5.453610  -0.469523
C  -2.463372  5.453610  0.279651
C  6.330357  6.197900  -0.399510
C  12.623562  4.000000  -0.570262
C  -2.463372  4.000000  0.360355
C  7.582124  12.724286  -0.199849
C  13.876357  10.553000  -0.330656
C  -1.214289  10.553000  0.425686
C  6.330357  12.029000  -0.296593
C  12.623562  9.823667  -0.530503
C  -2.463372  9.823667  0.350846
C  6.330357  10.553000  -0.636120
C  12.623562  8.371221  -0.446590
C  -2.463372  8.371221  0.270665
C  5.067250  9.823667  -0.514863
C  -3.721000  7.631998  0.184810
C  5.067250  8.371221  -0.426378
C  -3.721000  6.197900  0.187155
C  5.067250  12.724286  -0.146650
C  3.815571  12.029000  -0.242007
C  3.815571  10.553000  -0.324712
C  2.546438  12.724286  -0.153985
C  1.302141  12.029000  0.027405
C  6.330357  3.272000  -0.721714
C  15.145562  12.724286  -0.189919
C  0.021251  12.724286  0.206774
C  13.876357  12.029000  -0.285817
C  -1.214289  12.029000  0.365892
C  12.623562  12.724286  -0.184320
C  6.330357  1.797813  -0.408128
C  8.830644  1.797813  -0.404827
C  11.361143  1.797813  -0.408005
C  10.098375  1.101000  -0.352456
C  7.582124  1.101000  -0.337403
C  5.067250  1.101000  -0.260240
C  12.623562  1.101000  -0.272636
