142
frame	730
H  17.693000  13.826000  0.000000
H  19.858000  12.564000  0.000000
H  21.106000  10.363000  0.000000
H  22.366000  5.656000  0.000000
H  22.367000  8.165000  0.000000
H  19.852000  1.261000  0.000000
H  17.690000  -0.000000  0.000000
H  21.104000  3.459000  0.000000
H  2.530000  -0.005000  0.000000
H  15.160000  -0.002000  0.000000
H  0.000000  -0.000000  0.000000
H  -2.163000  1.262000  0.000000
H  -3.415000  3.463000  0.000000
H  -4.677000  8.168000  0.000000
H  -4.678000  5.662000  0.000000
H  -2.159000  12.565000  0.000000
H  10.109000  13.837000  0.000000
H  7.585000  13.838000  0.000000
H  5.062000  13.833000  0.000000
H  2.535000  13.828000  0.000000
H  15.163000  13.830000  0.000000
H  0.007000  13.825000  0.000000
H  -3.412000  10.366000  0.000000
H  12.635000  13.835000  0.000000
H  10.108000  -0.010000  0.000000
H  7.583000  -0.012000  0.000000
H  5.058000  -0.011000  0.000000
H  12.631000  -0.009000  0.000000
C  16.391568  10.553000  0.432831
C  16.391568  12.029000  0.264694
C  17.670751  12.724286  0.248340
C  17.670751  8.371221  0.556857
C  17.670751  9.823667  0.529402
C  18.905140  10.553000  0.557414
C  18.905140  12.029000  0.359889
C  17.670751  4.000000  0.529956
C  17.670751  5.453610  0.552615
C  18.905140  6.197900  0.681042
C  18.905140  7.631998  0.669175
C  20.154752  8.371221  0.563833
C  20.154752  9.823667  0.473259
C  18.905140  3.272000  0.571786
C  20.154752  4.000000  0.493643
C  20.154752  5.453610  0.563856
C  21.411000  6.197900  0.304072
C  21.411000  7.631998  0.310023
C  17.670751  1.101000  0.243177
C  18.905140  1.797813  0.366852
C  5.067250  5.453610  0.156401
C  5.067250  4.000000  0.122754
C  3.815571  3.272000  0.257892
C  3.815571  1.797813  0.157378
C  11.361143  3.272000  0.072526
C  2.546438  1.101000  0.152821
C  3.815571  7.631998  0.233266
C  3.815571  6.197900  0.209232
C  11.361143  7.631998  0.177366
C  2.546438  5.453610  0.341253
C  11.361143  6.197900  0.144952
C  2.546438  4.000000  0.371892
C  10.098375  5.453610  0.235050
C  16.391568  3.272000  0.422696
C  1.302141  3.272000  0.427647
C  10.098375  4.000000  0.068565
C  16.391568  1.797813  0.252660
C  1.302141  1.797813  0.259432
C  8.830644  3.272000  0.124209
C  15.145562  1.101000  0.151723
C  0.021251  1.101000  0.245874
C  11.361143  12.029000  0.113492
C  2.546438  9.823667  0.427740
C  11.361143  10.553000  0.127610
C  2.546438  8.371221  0.373129
C  10.098375  9.823667  0.133903
C  16.391568  7.631998  0.448048
C  1.302141  7.631998  0.455242
C  10.098375  8.371221  0.278183
C  16.391568  6.197900  0.444178
C  1.302141  6.197900  0.452336
C  15.145562  5.453610  0.322337
C  0.021251  5.453610  0.528764
C  8.830644  7.631998  0.363022
C  8.830644  6.197900  0.344451
C  15.145562  4.000000  0.359844
C  0.021251  4.000000  0.519355
C  7.582124  5.453610  0.233031
C  13.876357  3.272000  0.220640
C  -1.214289  3.272000  0.538036
C  7.582124  4.000000  0.078075
C  13.876357  1.797813  0.131129
C  -1.214289  1.797813  0.347407
C  10.098375  12.724286  0.156405
C  1.302141  10.553000  0.466446
C  8.830644  12.029000  0.193538
C  15.145562  9.823667  0.390543
C  0.021251  9.823667  0.540351
C  8.830644  10.553000  0.209717
C  15.145562  8.371221  0.344252
C  0.021251  8.371221  0.540061
C  7.582124  9.823667  0.164711
C  13.876357  7.631998  0.186743
C  -1.214289  7.631998  0.623517
C  7.582124  8.371221  0.277394
C  13.876357  6.197900  0.165838
C  -1.214289  6.197900  0.625263
C  6.330357  7.631998  0.216225
C  12.623562  5.453610  0.118005
C  -2.463372  5.453610  0.476403
C  6.330357  6.197900  0.180933
C  12.623562  4.000000  0.085768
C  -2.463372  4.000000  0.434971
C  7.582124  12.724286  0.172657
C  13.876357  10.553000  0.253452
C  -1.214289  10.553000  0.550391
C  6.330357  12.029000  0.140571
C  12.623562  9.823667  0.138148
C  -2.463372  9.823667  0.425664
C  6.330357  10.553000  0.174560
C  12.623562  8.371221  0.155739
C  -2.463372  8.371221  0.485301
C  5.067250  9.823667  0.185766
C  -3.721000  7.631998  0.186122
C  5.067250  8.371221  0.208010
C  -3.721000  6.197900  0.196119
C  5.067250  12.724286  0.166000
C  3.815571  12.029000  0.253140
C  3.815571  10.553000  0.322022
C  2.546438  12.724286  0.230463
C  1.302141  12.029000  0.299735
C  6.330357  3.272000  0.073669
C  15.145562  12.724286  0.172436
C  0.021251  12.724286  0.281945
C  13.876357  12.029000  0.169949
C  -1.214289  12.029000  0.346414
C  12.623562  12.724286  0.117865
C  6.330357  1.797813  0.008573
C  8.830644  1.797813  0.070411
C  11.361143  1.797813  0.004554
C  10.098375  1.101000  0.025340
C  7.582124  1.101000  0.015453
C  5.067250  1.101000  0.047116
C  12.623562  1.101000  0.021114
