142
frame	43
H  17.693000  13.826000  0.000000
H  19.858000  12.564000  0.000000
H  21.106000  10.363000  0.000000
H  22.366000  5.656000  0.000000
H  22.367000  8.165000  0.000000
H  19.852000  1.261000  0.000000
H  17.690000  -0.000000  0.000000
H  21.104000  3.459000  0.000000
H  2.530000  -0.005000  0.000000
H  15.160000  -0.002000  0.000000
H  0.000000  -0.000000  0.000000
H  -2.163000  1.262000  0.000000
H  -3.415000  3.463000  0.000000
H  -4.677000  8.168000  0.000000
H  -4.678000  5.662000  0.000000
H  -2.159000  12.565000  0.000000
H  10.109000  13.837000  0.000000
H  7.585000  13.838000  0.000000
H  5.062000  13.833000  0.000000
H  2.535000  13.828000  0.000000
H  15.163000  13.830000  0.000000
H  0.007000  13.825000  0.000000
H  -3.412000  10.366000  0.000000
H  12.635000  13.835000  0.000000
H  10.108000  -0.010000  0.000000
H  7.583000  -0.012000  0.000000
H  5.058000  -0.011000  0.000000
H  12.631000  -0.009000  0.000000
C  16.391568  10.553000  0.033997
C  16.391568  12.029000  0.018094
C  17.670751  12.724286  0.017987
C  17.670751  8.371221  0.067331
C  17.670751  9.823667  0.056530
C  18.905140  10.553000  0.073390
C  18.905140  12.029000  0.049263
C  17.670751  4.000000  0.055617
C  17.670751  5.453610  0.065837
C  18.905140  6.197900  0.107838
C  18.905140  7.631998  0.106011
C  20.154752  8.371221  0.143158
C  20.154752  9.823667  0.122874
C  18.905140  3.272000  0.083181
C  20.154752  4.000000  0.137825
C  20.154752  5.453610  0.151816
C  21.411000  6.197900  0.208979
C  21.411000  7.631998  0.203868
C  17.670751  1.101000  0.016878
C  18.905140  1.797813  0.061040
C  5.067250  5.453610  0.209260
C  5.067250  4.000000  0.038512
C  3.815571  3.272000  -0.046845
C  3.815571  1.797813  -0.044982
C  11.361143  3.272000  0.068409
C  2.546438  1.101000  -0.019693
C  3.815571  7.631998  0.095559
C  3.815571  6.197900  0.082311
C  11.361143  7.631998  0.003032
C  2.546438  5.453610  -0.005887
C  11.361143  6.197900  -0.045869
C  2.546438  4.000000  0.001845
C  10.098375  5.453610  -0.342307
C  16.391568  3.272000  0.017773
C  1.302141  3.272000  0.032900
C  10.098375  4.000000  -0.052219
C  16.391568  1.797813  -0.001185
C  1.302141  1.797813  0.007808
C  8.830644  3.272000  0.076228
C  15.145562  1.101000  -0.035517
C  0.021251  1.101000  0.013969
C  11.361143  12.029000  0.056267
C  2.546438  9.823667  0.040685
C  11.361143  10.553000  0.117219
C  2.546438  8.371221  0.013643
C  10.098375  9.823667  0.031507
C  16.391568  7.631998  0.020446
C  1.302141  7.631998  0.039913
C  10.098375  8.371221  -0.308229
C  16.391568  6.197900  0.014325
C  1.302141  6.197900  0.033712
C  15.145562  5.453610  -0.032985
C  0.021251  5.453610  0.062676
C  8.830644  7.631998  -0.796443
C  8.830644  6.197900  -0.837518
C  15.145562  4.000000  -0.023593
C  0.021251  4.000000  0.052329
C  7.582124  5.453610  -0.326778
C  13.876357  3.272000  -0.073771
C  -1.214289  3.272000  0.057592
C  7.582124  4.000000  -0.040071
C  13.876357  1.797813  -0.067192
C  -1.214289  1.797813  0.041768
C  10.098375  12.724286  0.030957
C  1.302141  10.553000  0.063993
C  8.830644  12.029000  0.139935
C  15.145562  9.823667  0.001054
C  0.021251  9.823667  0.064204
C  8.830644  10.553000  0.138555
C  15.145562  8.371221  -0.025743
C  0.021251  8.371221  0.069122
C  7.582124  9.823667  0.008360
C  13.876357  7.631998  0.039274
C  -1.214289  7.631998  0.076144
C  7.582124  8.371221  -0.295653
C  13.876357  6.197900  0.044292
C  -1.214289  6.197900  0.075973
C  6.330357  7.631998  -0.006773
C  12.623562  5.453610  0.162081
C  -2.463372  5.453610  0.085875
C  6.330357  6.197900  -0.012773
C  12.623562  4.000000  0.009541
C  -2.463372  4.000000  0.079166
C  7.582124  12.724286  0.050162
C  13.876357  10.553000  -0.035176
C  -1.214289  10.553000  0.059772
C  6.330357  12.029000  0.106742
C  12.623562  9.823667  0.033789
C  -2.463372  9.823667  0.071209
C  6.330357  10.553000  0.161347
C  12.623562  8.371221  0.181360
C  -2.463372  8.371221  0.080193
C  5.067250  9.823667  0.097384
C  -3.721000  7.631998  0.096073
C  5.067250  8.371221  0.232838
C  -3.721000  6.197900  0.100219
C  5.067250  12.724286  0.045968
C  3.815571  12.029000  0.041192
C  3.815571  10.553000  0.015367
C  2.546438  12.724286  0.055368
C  1.302141  12.029000  0.053960
C  6.330357  3.272000  0.085980
C  15.145562  12.724286  0.009642
C  0.021251  12.724286  0.041064
C  13.876357  12.029000  -0.004233
C  -1.214289  12.029000  0.045960
C  12.623562  12.724286  -0.000060
C  6.330357  1.797813  -0.010398
C  8.830644  1.797813  0.033358
C  11.361143  1.797813  -0.028234
C  10.098375  1.101000  -0.101288
C  7.582124  1.101000  -0.093309
C  5.067250  1.101000  -0.072072
C  12.623562  1.101000  -0.092609
