142
frame	781
H  17.693000  13.826000  0.000000
H  19.858000  12.564000  0.000000
H  21.106000  10.363000  0.000000
H  22.366000  5.656000  0.000000
H  22.367000  8.165000  0.000000
H  19.852000  1.261000  0.000000
H  17.690000  -0.000000  0.000000
H  21.104000  3.459000  0.000000
H  2.530000  -0.005000  0.000000
H  15.160000  -0.002000  0.000000
H  0.000000  -0.000000  0.000000
H  -2.163000  1.262000  0.000000
H  -3.415000  3.463000  0.000000
H  -4.677000  8.168000  0.000000
H  -4.678000  5.662000  0.000000
H  -2.159000  12.565000  0.000000
H  10.109000  13.837000  0.000000
H  7.585000  13.838000  0.000000
H  5.062000  13.833000  0.000000
H  2.535000  13.828000  0.000000
H  15.163000  13.830000  0.000000
H  0.007000  13.825000  0.000000
H  -3.412000  10.366000  0.000000
H  12.635000  13.835000  0.000000
H  10.108000  -0.010000  0.000000
H  7.583000  -0.012000  0.000000
H  5.058000  -0.011000  0.000000
H  12.631000  -0.009000  0.000000
C  16.391568  10.553000  0.359030
C  16.391568  12.029000  0.186408
C  17.670751  12.724286  -0.025321
C  17.670751  8.371221  0.571623
C  17.670751  9.823667  0.432255
C  18.905140  10.553000  0.090326
C  18.905140  12.029000  -0.093935
C  17.670751  4.000000  0.420830
C  17.670751  5.453610  0.567104
C  18.905140  6.197900  0.392869
C  18.905140  7.631998  0.374259
C  20.154752  8.371221  0.298000
C  20.154752  9.823667  0.090181
C  18.905140  3.272000  0.097682
C  20.154752  4.000000  0.101614
C  20.154752  5.453610  0.299471
C  21.411000  6.197900  0.406051
C  21.411000  7.631998  0.407088
C  17.670751  1.101000  -0.015837
C  18.905140  1.797813  -0.082430
C  5.067250  5.453610  0.433426
C  5.067250  4.000000  0.387604
C  3.815571  3.272000  0.247068
C  3.815571  1.797813  0.157511
C  11.361143  3.272000  0.314306
C  2.546438  1.101000  0.164777
C  3.815571  7.631998  0.506176
C  3.815571  6.197900  0.495921
C  11.361143  7.631998  0.365285
C  2.546438  5.453610  0.475372
C  11.361143  6.197900  0.343850
C  2.546438  4.000000  0.357203
C  10.098375  5.453610  0.371855
C  16.391568  3.272000  0.338443
C  1.302141  3.272000  0.350195
C  10.098375  4.000000  0.293969
C  16.391568  1.797813  0.155455
C  1.302141  1.797813  0.171905
C  8.830644  3.272000  0.188455
C  15.145562  1.101000  0.171324
C  0.021251  1.101000  -0.018808
C  11.361143  12.029000  0.137797
C  2.546438  9.823667  0.405243
C  11.361143  10.553000  0.389028
C  2.546438  8.371221  0.505051
C  10.098375  9.823667  0.371120
C  16.391568  7.631998  0.701631
C  1.302141  7.631998  0.723121
C  10.098375  8.371221  0.416648
C  16.391568  6.197900  0.714346
C  1.302141  6.197900  0.719919
C  15.145562  5.453610  0.460837
C  0.021251  5.453610  0.559696
C  8.830644  7.631998  0.440090
C  8.830644  6.197900  0.439790
C  15.145562  4.000000  0.344422
C  0.021251  4.000000  0.416980
C  7.582124  5.453610  0.404099
C  13.876357  3.272000  0.230043
C  -1.214289  3.272000  0.055941
C  7.582124  4.000000  0.320279
C  13.876357  1.797813  0.139711
C  -1.214289  1.797813  -0.119168
C  10.098375  12.724286  0.075434
C  1.302141  10.553000  0.397724
C  8.830644  12.029000  0.123697
C  15.145562  9.823667  0.373576
C  0.021251  9.823667  0.447334
C  8.830644  10.553000  0.289771
C  15.145562  8.371221  0.468137
C  0.021251  8.371221  0.568443
C  7.582124  9.823667  0.399513
C  13.876357  7.631998  0.455491
C  -1.214289  7.631998  0.364459
C  7.582124  8.371221  0.428083
C  13.876357  6.197900  0.457286
C  -1.214289  6.197900  0.356121
C  6.330357  7.631998  0.401793
C  12.623562  5.453610  0.398710
C  -2.463372  5.453610  0.240111
C  6.330357  6.197900  0.392738
C  12.623562  4.000000  0.374640
C  -2.463372  4.000000  0.041024
C  7.582124  12.724286  0.097138
C  13.876357  10.553000  0.274207
C  -1.214289  10.553000  0.064477
C  6.330357  12.029000  0.169468
C  12.623562  9.823667  0.412918
C  -2.463372  9.823667  0.038747
C  6.330357  10.553000  0.433177
C  12.623562  8.371221  0.419750
C  -2.463372  8.371221  0.240976
C  5.067250  9.823667  0.441171
C  -3.721000  7.631998  0.306285
C  5.067250  8.371221  0.478828
C  -3.721000  6.197900  0.318227
C  5.067250  12.724286  0.115404
C  3.815571  12.029000  0.258617
C  3.815571  10.553000  0.316465
C  2.546438  12.724286  0.254514
C  1.302141  12.029000  0.216534
C  6.330357  3.272000  0.337497
C  15.145562  12.724286  0.219464
C  0.021251  12.724286  0.011622
C  13.876357  12.029000  0.206717
C  -1.214289  12.029000  -0.126896
C  12.623562  12.724286  0.082216
C  6.330357  1.797813  0.035172
C  8.830644  1.797813  -0.006711
C  11.361143  1.797813  0.030987
C  10.098375  1.101000  -0.060980
C  7.582124  1.101000  -0.048566
C  5.067250  1.101000  -0.003447
C  12.623562  1.101000  -0.027324
