142
frame	808
H  17.693000  13.826000  0.000000
H  19.858000  12.564000  0.000000
H  21.106000  10.363000  0.000000
H  22.366000  5.656000  0.000000
H  22.367000  8.165000  0.000000
H  19.852000  1.261000  0.000000
H  17.690000  -0.000000  0.000000
H  21.104000  3.459000  0.000000
H  2.530000  -0.005000  0.000000
H  15.160000  -0.002000  0.000000
H  0.000000  -0.000000  0.000000
H  -2.163000  1.262000  0.000000
H  -3.415000  3.463000  0.000000
H  -4.677000  8.168000  0.000000
H  -4.678000  5.662000  0.000000
H  -2.159000  12.565000  0.000000
H  10.109000  13.837000  0.000000
H  7.585000  13.838000  0.000000
H  5.062000  13.833000  0.000000
H  2.535000  13.828000  0.000000
H  15.163000  13.830000  0.000000
H  0.007000  13.825000  0.000000
H  -3.412000  10.366000  0.000000
H  12.635000  13.835000  0.000000
H  10.108000  -0.010000  0.000000
H  7.583000  -0.012000  0.000000
H  5.058000  -0.011000  0.000000
H  12.631000  -0.009000  0.000000
C  16.391568  10.553000  0.210456
C  16.391568  12.029000  0.082337
C  17.670751  12.724286  0.076445
C  17.670751  8.371221  0.324243
C  17.670751  9.823667  0.119325
C  18.905140  10.553000  0.115473
C  18.905140  12.029000  0.101714
C  17.670751  4.000000  0.126334
C  17.670751  5.453610  0.330314
C  18.905140  6.197900  0.392887
C  18.905140  7.631998  0.397112
C  20.154752  8.371221  0.240531
C  20.154752  9.823667  0.196713
C  18.905140  3.272000  0.118976
C  20.154752  4.000000  0.209891
C  20.154752  5.453610  0.243680
C  21.411000  6.197900  0.178849
C  21.411000  7.631998  0.169704
C  17.670751  1.101000  0.056515
C  18.905140  1.797813  0.101059
C  5.067250  5.453610  0.729441
C  5.067250  4.000000  0.467061
C  3.815571  3.272000  0.370101
C  3.815571  1.797813  0.054120
C  11.361143  3.272000  0.279268
C  2.546438  1.101000  -0.037513
C  3.815571  7.631998  0.748245
C  3.815571  6.197900  0.733544
C  11.361143  7.631998  0.666232
C  2.546438  5.453610  0.632285
C  11.361143  6.197900  0.657247
C  2.546438  4.000000  0.410183
C  10.098375  5.453610  0.395781
C  16.391568  3.272000  0.187391
C  1.302141  3.272000  0.182212
C  10.098375  4.000000  0.320491
C  16.391568  1.797813  0.056945
C  1.302141  1.797813  0.036708
C  8.830644  3.272000  0.303841
C  15.145562  1.101000  -0.047331
C  0.021251  1.101000  0.047408
C  11.361143  12.029000  0.223110
C  2.546438  9.823667  0.454812
C  11.361143  10.553000  0.351272
C  2.546438  8.371221  0.652455
C  10.098375  9.823667  0.381830
C  16.391568  7.631998  0.475837
C  1.302141  7.631998  0.502671
C  10.098375  8.371221  0.425181
C  16.391568  6.197900  0.469803
C  1.302141  6.197900  0.494912
C  15.145562  5.453610  0.603576
C  0.021251  5.453610  0.329752
C  8.830644  7.631998  0.242799
C  8.830644  6.197900  0.206642
C  15.145562  4.000000  0.407737
C  0.021251  4.000000  0.117987
C  7.582124  5.453610  0.393419
C  13.876357  3.272000  0.361727
C  -1.214289  3.272000  0.104499
C  7.582124  4.000000  0.327566
C  13.876357  1.797813  0.051988
C  -1.214289  1.797813  0.095291
C  10.098375  12.724286  0.180544
C  1.302141  10.553000  0.227609
C  8.830644  12.029000  0.281452
C  15.145562  9.823667  0.424482
C  0.021251  9.823667  0.125702
C  8.830644  10.553000  0.387540
C  15.145562  8.371221  0.610619
C  0.021251  8.371221  0.340119
C  7.582124  9.823667  0.399620
C  13.876357  7.631998  0.706048
C  -1.214289  7.631998  0.359134
C  7.582124  8.371221  0.447550
C  13.876357  6.197900  0.689381
C  -1.214289  6.197900  0.372982
C  6.330357  7.631998  0.702574
C  12.623562  5.453610  0.696074
C  -2.463372  5.453610  0.187364
C  6.330357  6.197900  0.676635
C  12.623562  4.000000  0.431392
C  -2.463372  4.000000  0.162240
C  7.582124  12.724286  0.209994
C  13.876357  10.553000  0.412238
C  -1.214289  10.553000  0.113842
C  6.330357  12.029000  0.262758
C  12.623562  9.823667  0.487376
C  -2.463372  9.823667  0.147970
C  6.330357  10.553000  0.386889
C  12.623562  8.371221  0.717360
C  -2.463372  8.371221  0.185070
C  5.067250  9.823667  0.532020
C  -3.721000  7.631998  0.066326
C  5.067250  8.371221  0.751350
C  -3.721000  6.197900  0.064601
C  5.067250  12.724286  0.157195
C  3.815571  12.029000  0.147379
C  3.815571  10.553000  0.432881
C  2.546438  12.724286  0.048459
C  1.302141  12.029000  0.110184
C  6.330357  3.272000  0.295163
C  15.145562  12.724286  0.002225
C  0.021251  12.724286  0.078734
C  13.876357  12.029000  0.136672
C  -1.214289  12.029000  0.113763
C  12.623562  12.724286  0.111221
C  6.330357  1.797813  0.147869
C  8.830644  1.797813  0.156513
C  11.361143  1.797813  0.093023
C  10.098375  1.101000  0.041901
C  7.582124  1.101000  0.060051
C  5.067250  1.101000  0.026537
C  12.623562  1.101000  -0.004492
