142
frame	342
H  17.693000  13.826000  0.000000
H  19.858000  12.564000  0.000000
H  21.106000  10.363000  0.000000
H  22.366000  5.656000  0.000000
H  22.367000  8.165000  0.000000
H  19.852000  1.261000  0.000000
H  17.690000  -0.000000  0.000000
H  21.104000  3.459000  0.000000
H  2.530000  -0.005000  0.000000
H  15.160000  -0.002000  0.000000
H  0.000000  -0.000000  0.000000
H  -2.163000  1.262000  0.000000
H  -3.415000  3.463000  0.000000
H  -4.677000  8.168000  0.000000
H  -4.678000  5.662000  0.000000
H  -2.159000  12.565000  0.000000
H  10.109000  13.837000  0.000000
H  7.585000  13.838000  0.000000
H  5.062000  13.833000  0.000000
H  2.535000  13.828000  0.000000
H  15.163000  13.830000  0.000000
H  0.007000  13.825000  0.000000
H  -3.412000  10.366000  0.000000
H  12.635000  13.835000  0.000000
H  10.108000  -0.010000  0.000000
H  7.583000  -0.012000  0.000000
H  5.058000  -0.011000  0.000000
H  12.631000  -0.009000  0.000000
C  16.391568  10.553000  -0.217757
C  16.391568  12.029000  -0.016005
C  17.670751  12.724286  -0.022778
C  17.670751  8.371221  -0.555891
C  17.670751  9.823667  -0.285075
C  18.905140  10.553000  -0.132266
C  18.905140  12.029000  -0.015314
C  17.670751  4.000000  -0.295896
C  17.670751  5.453610  -0.551831
C  18.905140  6.197900  -0.581019
C  18.905140  7.631998  -0.583069
C  20.154752  8.371221  -0.322037
C  20.154752  9.823667  -0.158866
C  18.905140  3.272000  -0.119667
C  20.154752  4.000000  -0.160337
C  20.154752  5.453610  -0.311465
C  21.411000  6.197900  0.002210
C  21.411000  7.631998  0.009764
C  17.670751  1.101000  -0.005018
C  18.905140  1.797813  0.007496
C  5.067250  5.453610  -0.510047
C  5.067250  4.000000  -0.360126
C  3.815571  3.272000  -0.421811
C  3.815571  1.797813  -0.246842
C  11.361143  3.272000  -0.450517
C  2.546438  1.101000  -0.048192
C  3.815571  7.631998  -0.578119
C  3.815571  6.197900  -0.591041
C  11.361143  7.631998  -0.473808
C  2.546438  5.453610  -0.586940
C  11.361143  6.197900  -0.491246
C  2.546438  4.000000  -0.470635
C  10.098375  5.453610  -0.499252
C  16.391568  3.272000  -0.237618
C  1.302141  3.272000  -0.286827
C  10.098375  4.000000  -0.536614
C  16.391568  1.797813  -0.033309
C  1.302141  1.797813  -0.073046
C  8.830644  3.272000  -0.614612
C  15.145562  1.101000  -0.056201
C  0.021251  1.101000  -0.056117
C  11.361143  12.029000  -0.288954
C  2.546438  9.823667  -0.422088
C  11.361143  10.553000  -0.377135
C  2.546438  8.371221  -0.569435
C  10.098375  9.823667  -0.478650
C  16.391568  7.631998  -0.603866
C  1.302141  7.631998  -0.650650
C  10.098375  8.371221  -0.455556
C  16.391568  6.197900  -0.600797
C  1.302141  6.197900  -0.662660
C  15.145562  5.453610  -0.553938
C  0.021251  5.453610  -0.615719
C  8.830644  7.631998  -0.286129
C  8.830644  6.197900  -0.310066
C  15.145562  4.000000  -0.435556
C  0.021251  4.000000  -0.350536
C  7.582124  5.453610  -0.517300
C  13.876357  3.272000  -0.399341
C  -1.214289  3.272000  -0.180793
C  7.582124  4.000000  -0.544024
C  13.876357  1.797813  -0.241309
C  -1.214289  1.797813  -0.036546
C  10.098375  12.724286  -0.152948
C  1.302141  10.553000  -0.241869
C  8.830644  12.029000  -0.276449
C  15.145562  9.823667  -0.402906
C  0.021251  9.823667  -0.332389
C  8.830644  10.553000  -0.528183
C  15.145562  8.371221  -0.517727
C  0.021251  8.371221  -0.609694
C  7.582124  9.823667  -0.472067
C  13.876357  7.631998  -0.549120
C  -1.214289  7.631998  -0.679498
C  7.582124  8.371221  -0.455675
C  13.876357  6.197900  -0.571886
C  -1.214289  6.197900  -0.686473
C  6.330357  7.631998  -0.470991
C  12.623562  5.453610  -0.501195
C  -2.463372  5.453610  -0.417352
C  6.330357  6.197900  -0.491297
C  12.623562  4.000000  -0.332708
C  -2.463372  4.000000  -0.235009
C  7.582124  12.724286  -0.146836
C  13.876357  10.553000  -0.349750
C  -1.214289  10.553000  -0.186342
C  6.330357  12.029000  -0.283204
C  12.623562  9.823667  -0.297316
C  -2.463372  9.823667  -0.250629
C  6.330357  10.553000  -0.373862
C  12.623562  8.371221  -0.462101
C  -2.463372  8.371221  -0.412900
C  5.067250  9.823667  -0.300093
C  -3.721000  7.631998  -0.123629
C  5.067250  8.371221  -0.468646
C  -3.721000  6.197900  -0.113273
C  5.067250  12.724286  -0.157035
C  3.815571  12.029000  -0.153971
C  3.815571  10.553000  -0.356153
C  2.546438  12.724286  0.022663
C  1.302141  12.029000  -0.020985
C  6.330357  3.272000  -0.464413
C  15.145562  12.724286  -0.000688
C  0.021251  12.724286  -0.024793
C  13.876357  12.029000  -0.188278
C  -1.214289  12.029000  -0.034592
C  12.623562  12.724286  -0.190784
C  6.330357  1.797813  -0.399500
C  8.830644  1.797813  -0.392337
C  11.361143  1.797813  -0.392942
C  10.098375  1.101000  -0.291642
C  7.582124  1.101000  -0.295573
C  5.067250  1.101000  -0.286529
C  12.623562  1.101000  -0.298087
