142
frame	928
H  17.693000  13.826000  0.000000
H  19.858000  12.564000  0.000000
H  21.106000  10.363000  0.000000
H  22.366000  5.656000  0.000000
H  22.367000  8.165000  0.000000
H  19.852000  1.261000  0.000000
H  17.690000  -0.000000  0.000000
H  21.104000  3.459000  0.000000
H  2.530000  -0.005000  0.000000
H  15.160000  -0.002000  0.000000
H  0.000000  -0.000000  0.000000
H  -2.163000  1.262000  0.000000
H  -3.415000  3.463000  0.000000
H  -4.677000  8.168000  0.000000
H  -4.678000  5.662000  0.000000
H  -2.159000  12.565000  0.000000
H  10.109000  13.837000  0.000000
H  7.585000  13.838000  0.000000
H  5.062000  13.833000  0.000000
H  2.535000  13.828000  0.000000
H  15.163000  13.830000  0.000000
H  0.007000  13.825000  0.000000
H  -3.412000  10.366000  0.000000
H  12.635000  13.835000  0.000000
H  10.108000  -0.010000  0.000000
H  7.583000  -0.012000  0.000000
H  5.058000  -0.011000  0.000000
H  12.631000  -0.009000  0.000000
C  16.391568  10.553000  0.226412
C  16.391568  12.029000  0.150135
C  17.670751  12.724286  0.074894
C  17.670751  8.371221  0.117322
C  17.670751  9.823667  0.276269
C  18.905140  10.553000  0.239897
C  18.905140  12.029000  0.106756
C  17.670751  4.000000  0.265080
C  17.670751  5.453610  0.127238
C  18.905140  6.197900  -0.054751
C  18.905140  7.631998  -0.053187
C  20.154752  8.371221  0.158450
C  20.154752  9.823667  0.218062
C  18.905140  3.272000  0.229988
C  20.154752  4.000000  0.221015
C  20.154752  5.453610  0.164236
C  21.411000  6.197900  0.225649
C  21.411000  7.631998  0.229494
C  17.670751  1.101000  0.067934
C  18.905140  1.797813  0.111112
C  5.067250  5.453610  0.544476
C  5.067250  4.000000  0.510706
C  3.815571  3.272000  0.310986
C  3.815571  1.797813  0.229966
C  11.361143  3.272000  0.598291
C  2.546438  1.101000  0.109946
C  3.815571  7.631998  0.402279
C  3.815571  6.197900  0.386423
C  11.361143  7.631998  0.718741
C  2.546438  5.453610  0.240836
C  11.361143  6.197900  0.704433
C  2.546438  4.000000  0.155578
C  10.098375  5.453610  0.965708
C  16.391568  3.272000  0.186784
C  1.302141  3.272000  0.201115
C  10.098375  4.000000  0.752790
C  16.391568  1.797813  0.120298
C  1.302141  1.797813  0.127213
C  8.830644  3.272000  0.654174
C  15.145562  1.101000  0.112975
C  0.021251  1.101000  0.080580
C  11.361143  12.029000  0.437260
C  2.546438  9.823667  0.162636
C  11.361143  10.553000  0.667064
C  2.546438  8.371221  0.242835
C  10.098375  9.823667  0.817318
C  16.391568  7.631998  0.121777
C  1.302141  7.631998  0.108631
C  10.098375  8.371221  0.982861
C  16.391568  6.197900  0.126673
C  1.302141  6.197900  0.119477
C  15.145562  5.453610  0.226980
C  0.021251  5.453610  0.105539
C  8.830644  7.631998  1.256309
C  8.830644  6.197900  1.252130
C  15.145562  4.000000  0.140958
C  0.021251  4.000000  0.258522
C  7.582124  5.453610  0.946583
C  13.876357  3.272000  0.315301
C  -1.214289  3.272000  0.236866
C  7.582124  4.000000  0.766173
C  13.876357  1.797813  0.205056
C  -1.214289  1.797813  0.105550
C  10.098375  12.724286  0.415012
C  1.302141  10.553000  0.220791
C  8.830644  12.029000  0.579388
C  15.145562  9.823667  0.161978
C  0.021251  9.823667  0.273445
C  8.830644  10.553000  0.741399
C  15.145562  8.371221  0.218564
C  0.021251  8.371221  0.095942
C  7.582124  9.823667  0.818435
C  13.876357  7.631998  0.391595
C  -1.214289  7.631998  -0.113016
C  7.582124  8.371221  0.964179
C  13.876357  6.197900  0.386560
C  -1.214289  6.197900  -0.091133
C  6.330357  7.631998  0.712608
C  12.623562  5.453610  0.533170
C  -2.463372  5.453610  0.086661
C  6.330357  6.197900  0.694530
C  12.623562  4.000000  0.506960
C  -2.463372  4.000000  0.171791
C  7.582124  12.724286  0.418885
C  13.876357  10.553000  0.356730
C  -1.214289  10.553000  0.240684
C  6.330357  12.029000  0.457254
C  12.623562  9.823667  0.547992
C  -2.463372  9.823667  0.161456
C  6.330357  10.553000  0.686747
C  12.623562  8.371221  0.549210
C  -2.463372  8.371221  0.077628
C  5.067250  9.823667  0.575767
C  -3.721000  7.631998  0.096463
C  5.067250  8.371221  0.572624
C  -3.721000  6.197900  0.103540
C  5.067250  12.724286  0.281861
C  3.815571  12.029000  0.309706
C  3.815571  10.553000  0.361869
C  2.546438  12.724286  0.191635
C  1.302141  12.029000  0.173281
C  6.330357  3.272000  0.612448
C  15.145562  12.724286  0.158342
C  0.021251  12.724286  0.106667
C  13.876357  12.029000  0.272700
C  -1.214289  12.029000  0.109172
C  12.623562  12.724286  0.262544
C  6.330357  1.797813  0.348627
C  8.830644  1.797813  0.460658
C  11.361143  1.797813  0.339852
C  10.098375  1.101000  0.283402
C  7.582124  1.101000  0.287271
C  5.067250  1.101000  0.175983
C  12.623562  1.101000  0.143892
